data_bar
_audit_creation_date              2020-02-04
_audit_creation_method            'Pymatgen'
_symmetry_space_group_name_H-M    'P1'
_symmetry_Int_Tables_number       1
loop_
_symmetry_equiv_pos_as_xyz
  x,y,z
_cell_length_a                    85.5205
_cell_length_b                    85.5205
_cell_length_c                    85.5205
_cell_angle_alpha                 90.0
_cell_angle_beta                 90.0
_cell_angle_gamma                 90.0
loop_
_atom_site_label
_atom_site_type_symbol
_atom_site_fract_x
_atom_site_fract_y
_atom_site_fract_z
Er1     Er     0.374   0.2913   0.2913
Er2     Er     0.374   0.2087   0.2087
Er3     Er     0.2913   0.2913   0.374
Er4     Er     0.2087   0.2087   0.374
Er5     Er     0.2087   0.374   0.2087
Er6     Er     0.2913   0.374   0.2913
Er7     Er     0.2913   0.2087   0.126
Er8     Er     0.2087   0.2913   0.126
Er9     Er     0.2087   0.126   0.2913
Er10     Er     0.2913   0.126   0.2087
Er11     Er     0.126   0.2913   0.2087
Er12     Er     0.126   0.2087   0.2913
Er13     Er     0.7913   0.2913   0.126
Er14     Er     0.7087   0.2087   0.126
Er15     Er     0.7913   0.126   0.2913
Er16     Er     0.7087   0.126   0.2087
Er17     Er     0.874   0.2087   0.2913
Er18     Er     0.874   0.2913   0.2087
Er19     Er     0.626   0.2913   0.2913
Er20     Er     0.626   0.2087   0.2087
Er21     Er     0.7913   0.2087   0.374
Er22     Er     0.7087   0.2913   0.374
Er23     Er     0.7913   0.374   0.2087
Er24     Er     0.7087   0.374   0.2913
V25     V     0.5585   0.6412   0.3588
V26     V     0.6412   0.5585   0.3588
V27     V     0.6412   0.6412   0.4415
V28     V     0.6412   0.4415   0.3588
V29     V     0.5585   0.3588   0.3588
V30     V     0.6412   0.3588   0.4415
V31     V     0.5585   0.6412   0.6412
V32     V     0.6412   0.6412   0.5585
V33     V     0.6412   0.5585   0.6412
V34     V     0.6412   0.3588   0.5585
V35     V     0.5585   0.3588   0.6412
V36     V     0.6412   0.4415   0.6412
V37     V     0.4415   0.3588   0.6412
V38     V     0.3588   0.3588   0.5585
V39     V     0.3588   0.4415   0.6412
V40     V     0.3588   0.5585   0.6412
V41     V     0.3588   0.6412   0.5585
V42     V     0.4415   0.6412   0.6412
V43     V     0.4415   0.3588   0.3588
V44     V     0.3588   0.3588   0.4415
V45     V     0.3588   0.4415   0.3588
V46     V     0.4415   0.6412   0.3588
V47     V     0.3588   0.5585   0.3588
V48     V     0.3588   0.6412   0.4415
Er49     Er     0.2087   0.7913   0.626
Er50     Er     0.2087   0.626   0.7913
Er51     Er     0.126   0.7087   0.7913
Er52     Er     0.126   0.7913   0.7087
Er53     Er     0.374   0.7913   0.7913
Er54     Er     0.2913   0.874   0.7913
Er55     Er     0.2913   0.7913   0.874
Er56     Er     0.2087   0.7087   0.874
Er57     Er     0.2087   0.874   0.7087
Er58     Er     0.374   0.7087   0.7087
Er59     Er     0.2913   0.626   0.7087
Er60     Er     0.2913   0.7087   0.626
V61     V     0.3588   0.9415   0.1412
V62     V     0.3588   0.8588   0.0585
V63     V     0.4415   0.8588   0.1412
V64     V     0.6412   0.9415   0.1412
V65     V     0.5585   0.8588   0.1412
V66     V     0.6412   0.8588   0.0585
V67     V     0.6412   0.1412   0.0585
V68     V     0.5585   0.1412   0.1412
V69     V     0.6412   0.0585   0.1412
V70     V     0.3588   0.0585   0.1412
V71     V     0.3588   0.1412   0.0585
V72     V     0.4415   0.1412   0.1412
V73     V     0.5585   0.8588   0.8588
V74     V     0.6412   0.8588   0.9415
V75     V     0.6412   0.9415   0.8588
V76     V     0.4415   0.8588   0.8588
V77     V     0.3588   0.8588   0.9415
V78     V     0.3588   0.9415   0.8588
V79     V     0.6412   0.1412   0.9415
V80     V     0.5585   0.1412   0.8588
V81     V     0.6412   0.0585   0.8588
V82     V     0.3588   0.1412   0.9415
V83     V     0.3588   0.0585   0.8588
V84     V     0.4415   0.1412   0.8588
Er85     Er     0.626   0.2087   0.7913
Er86     Er     0.7913   0.126   0.7087
Er87     Er     0.7087   0.126   0.7913
Er88     Er     0.7913   0.374   0.7913
Er89     Er     0.874   0.2913   0.7913
Er90     Er     0.7913   0.2913   0.874
Er91     Er     0.7087   0.2087   0.874
Er92     Er     0.874   0.2087   0.7087
Er93     Er     0.626   0.2913   0.7087
Er94     Er     0.7087   0.374   0.7087
Er95     Er     0.7913   0.2087   0.626
Er96     Er     0.7087   0.2913   0.626
Er97     Er     0.2913   0.126   0.7913
Er98     Er     0.2087   0.126   0.7087
Er99     Er     0.126   0.2913   0.7913
Er100     Er     0.126   0.2087   0.7087
Er101     Er     0.374   0.2087   0.7913
Er102     Er     0.2087   0.374   0.7913
Er103     Er     0.2087   0.2913   0.874
Er104     Er     0.2913   0.2087   0.874
Er105     Er     0.2087   0.2087   0.626
Er106     Er     0.2913   0.2913   0.626
Er107     Er     0.2913   0.374   0.7087
Er108     Er     0.374   0.2913   0.7087
V109     V     0.9415   0.6412   0.1412
V110     V     0.8588   0.5585   0.1412
V111     V     0.8588   0.6412   0.0585
V112     V     0.9415   0.3588   0.1412
V113     V     0.8588   0.3588   0.0585
V114     V     0.8588   0.4415   0.1412
V115     V     0.1412   0.6412   0.0585
V116     V     0.1412   0.5585   0.1412
V117     V     0.0585   0.6412   0.1412
V118     V     0.0585   0.3588   0.1412
V119     V     0.1412   0.3588   0.0585
V120     V     0.1412   0.4415   0.1412
V121     V     0.8588   0.4415   0.8588
V122     V     0.8588   0.3588   0.9415
V123     V     0.9415   0.3588   0.8588
V124     V     0.8588   0.5585   0.8588
V125     V     0.8588   0.6412   0.9415
V126     V     0.9415   0.6412   0.8588
V127     V     0.1412   0.6412   0.9415
V128     V     0.1412   0.5585   0.8588
V129     V     0.0585   0.6412   0.8588
V130     V     0.1412   0.3588   0.9415
V131     V     0.0585   0.3588   0.8588
V132     V     0.1412   0.4415   0.8588
Er133     Er     0.626   0.7087   0.7087
Er134     Er     0.7087   0.7087   0.626
Er135     Er     0.7087   0.626   0.7087
Er136     Er     0.626   0.7913   0.7913
Er137     Er     0.7913   0.626   0.7913
Er138     Er     0.7913   0.7087   0.874
Er139     Er     0.7087   0.7913   0.874
Er140     Er     0.874   0.7913   0.7087
Er141     Er     0.874   0.7087   0.7913
Er142     Er     0.7913   0.874   0.7087
Er143     Er     0.7087   0.874   0.7913
Er144     Er     0.7913   0.7913   0.626
Er145     Er     0.2913   0.626   0.2913
Er146     Er     0.2087   0.626   0.2087
Er147     Er     0.2913   0.7913   0.126
Er148     Er     0.2087   0.7087   0.126
Er149     Er     0.126   0.7913   0.2913
Er150     Er     0.126   0.7087   0.2087
Er151     Er     0.2087   0.7913   0.374
Er152     Er     0.2087   0.874   0.2913
Er153     Er     0.2913   0.874   0.2087
Er154     Er     0.2913   0.7087   0.374
Er155     Er     0.374   0.7913   0.2087
Er156     Er     0.374   0.7087   0.2913
Er157     Er     0.7913   0.7087   0.126
Er158     Er     0.7087   0.7913   0.126
Er159     Er     0.7913   0.7913   0.374
Er160     Er     0.874   0.7913   0.2913
Er161     Er     0.7913   0.874   0.2913
Er162     Er     0.7087   0.874   0.2087
Er163     Er     0.874   0.7087   0.2087
Er164     Er     0.626   0.7913   0.2087
Er165     Er     0.626   0.7087   0.2913
Er166     Er     0.7087   0.7087   0.374
Er167     Er     0.7913   0.626   0.2087
Er168     Er     0.7087   0.626   0.2913
V169     V     0.9415   0.1412   0.3588
V170     V     0.8588   0.0585   0.3588
V171     V     0.8588   0.1412   0.4415
V172     V     0.9415   0.1412   0.6412
V173     V     0.8588   0.1412   0.5585
V174     V     0.8588   0.0585   0.6412
V175     V     0.8588   0.8588   0.5585
V176     V     0.8588   0.9415   0.6412
V177     V     0.9415   0.8588   0.6412
V178     V     0.8588   0.8588   0.4415
V179     V     0.8588   0.9415   0.3588
V180     V     0.9415   0.8588   0.3588
V181     V     0.1412   0.0585   0.6412
V182     V     0.1412   0.1412   0.5585
V183     V     0.0585   0.1412   0.6412
V184     V     0.1412   0.0585   0.3588
V185     V     0.0585   0.1412   0.3588
V186     V     0.1412   0.1412   0.4415
V187     V     0.1412   0.9415   0.6412
V188     V     0.1412   0.8588   0.5585
V189     V     0.0585   0.8588   0.6412
V190     V     0.1412   0.9415   0.3588
V191     V     0.0585   0.8588   0.3588
V192     V     0.1412   0.8588   0.4415
loop_
_geom_bond_atom_site_label_1
_geom_bond_atom_site_label_2
_geom_bond_distance
_geom_bond_site_symmetry_2
_ccdc_geom_bond_type
Er1     Er2    10.0   .     S
Er1     Er3    10.0   .     S
Er1     Er6    10.0   .     S
Er1     V43    10.0   .     S
Er2     Er7    10.0   .     S
Er2     Er10    10.0   .     S
Er2     V72    10.0   .     S
Er3     Er4    10.0   .     S
Er3     Er6    10.0   .     S
Er3     V44    10.0   .     S
Er4     Er9    10.0   .     S
Er4     Er12    10.0   .     S
Er4     V186    10.0   .     S
Er5     Er6    10.0   .     S
Er5     Er8    10.0   .     S
Er5     Er11    10.0   .     S
Er5     V120    10.0   .     S
Er6     V45    10.0   .     S
Er7     Er8    10.0   .     S
Er7     Er10    10.0   .     S
Er7     V71    10.0   .     S
Er8     Er11    10.0   .     S
Er8     V119    10.0   .     S
Er9     Er10    10.0   .     S
Er9     Er12    10.0   .     S
Er9     V184    10.0   .     S
Er10     V70    10.0   .     S
Er11     Er12    10.0   .     S
Er11     V118    10.0   .     S
Er12     V185    10.0   .     S
Er13     Er14    10.0   .     S
Er13     Er18    10.0   .     S
Er13     Er23    10.0   .     S
Er13     V113    10.0   .     S
Er14     Er16    10.0   .     S
Er14     Er20    10.0   .     S
Er14     V67    10.0   .     S
Er15     Er16    10.0   .     S
Er15     Er21    10.0   .     S
Er15     Er17    10.0   .     S
Er15     V170    10.0   .     S
Er16     Er20    10.0   .     S
Er16     V69    10.0   .     S
Er17     Er18    10.0   .     S
Er17     Er21    10.0   .     S
Er17     V169    10.0   .     S
Er18     Er23    10.0   .     S
Er18     V112    10.0   .     S
Er19     Er20    10.0   .     S
Er19     Er22    10.0   .     S
Er19     Er24    10.0   .     S
Er19     V29    10.0   .     S
Er20     V68    10.0   .     S
Er21     Er22    10.0   .     S
Er21     V171    10.0   .     S
Er22     Er24    10.0   .     S
Er22     V30    10.0   .     S
Er23     Er24    10.0   .     S
Er23     V114    10.0   .     S
Er24     V28    10.0   .     S
V25     Er165    10.0   .     S
V25     V26    10.0   .     S
V25     V27    10.0   .     S
V25     V46    10.001   .     S
V26     Er168    10.0   .     S
V26     V27    10.0   .     S
V26     V28    10.001   .     S
V27     Er166    10.0   .     S
V27     V32    10.001   .     S
V28     V29    10.0   .     S
V28     V30    10.0   .     S
V29     V30    10.0   .     S
V29     V43    10.001   .     S
V30     V34    10.001   .     S
V31     Er133    10.0   .     S
V31     V32    10.0   .     S
V31     V33    10.0   .     S
V31     V42    10.001   .     S
V32     Er134    10.0   .     S
V32     V33    10.0   .     S
V33     Er135    10.0   .     S
V33     V36    10.001   .     S
V34     Er96    10.0   .     S
V34     V35    10.0   .     S
V34     V36    10.0   .     S
V35     Er93    10.0   .     S
V35     V36    10.0   .     S
V35     V37    10.001   .     S
V36     Er94    10.0   .     S
V37     Er108    10.0   .     S
V37     V38    10.0   .     S
V37     V39    10.0   .     S
V38     Er106    10.0   .     S
V38     V39    10.0   .     S
V38     V44    10.001   .     S
V39     Er107    10.0   .     S
V39     V40    10.001   .     S
V40     Er59    10.0   .     S
V40     V41    10.0   .     S
V40     V42    10.0   .     S
V41     Er60    10.0   .     S
V41     V42    10.0   .     S
V41     V48    10.001   .     S
V42     Er58    10.0   .     S
V43     V44    10.0   .     S
V43     V45    10.0   .     S
V44     V45    10.0   .     S
V45     V47    10.001   .     S
V46     Er156    10.0   .     S
V46     V47    10.0   .     S
V46     V48    10.0   .     S
V47     Er145    10.0   .     S
V47     V48    10.0   .     S
V48     Er154    10.0   .     S
Er49     Er60    10.0   .     S
Er49     Er52    10.0   .     S
Er49     Er57    10.0   .     S
Er49     V188    10.0   .     S
Er50     Er59    10.0   .     S
Er50     Er51    10.0   .     S
Er50     Er56    10.0   .     S
Er50     V128    10.0   .     S
Er51     Er52    10.0   .     S
Er51     Er56    10.0   .     S
Er51     V129    10.0   .     S
Er52     Er57    10.0   .     S
Er52     V189    10.0   .     S
Er53     Er58    10.0   .     S
Er53     Er55    10.0   .     S
Er53     Er54    10.0   .     S
Er53     V76    10.0   .     S
Er54     Er57    10.0   .     S
Er54     Er55    10.0   .     S
Er54     V78    10.0   .     S
Er55     Er56    10.0   .     S
Er55     V77    10.0   .     S
Er56     V127    10.0   .     S
Er57     V187    10.0   .     S
Er58     Er60    10.0   .     S
Er58     Er59    10.0   .     S
Er59     Er60    10.0   .     S
V61     Er153    10.0   .     S
V61     V62    10.0   .     S
V61     V63    10.0   .     S
V61     V70    10.001   1_565     S
V62     Er147    10.0   .     S
V62     V63    10.0   .     S
V62     V77    10.001   1_554     S
V63     Er155    10.0   .     S
V63     V65    10.001   .     S
V64     Er162    10.0   .     S
V64     V65    10.0   .     S
V64     V66    10.0   .     S
V64     V69    10.001   1_565     S
V65     Er164    10.0   .     S
V65     V66    10.0   .     S
V66     Er158    10.0   .     S
V66     V74    10.001   1_554     S
V67     V68    10.0   .     S
V67     V69    10.0   .     S
V67     V79    10.001   1_554     S
V68     V69    10.0   .     S
V68     V72    10.001   .     S
V69     V64    10.001   1_545     S
V70     V71    10.0   .     S
V70     V72    10.0   .     S
V70     V61    10.001   1_545     S
V71     V72    10.0   .     S
V71     V82    10.001   1_554     S
V73     Er136    10.0   .     S
V73     V74    10.0   .     S
V73     V75    10.0   .     S
V73     V76    10.001   .     S
V74     V66    10.001   1_556     S
V74     Er139    10.0   .     S
V74     V75    10.0   .     S
V75     Er143    10.0   .     S
V75     V81    10.001   1_565     S
V76     V77    10.0   .     S
V76     V78    10.0   .     S
V77     V62    10.001   1_556     S
V77     V78    10.0   .     S
V78     V83    10.001   1_565     S
V79     V67    10.001   1_556     S
V79     Er91    10.0   .     S
V79     V80    10.0   .     S
V79     V81    10.0   .     S
V80     Er85    10.0   .     S
V80     V81    10.0   .     S
V80     V84    10.001   .     S
V81     Er87    10.0   .     S
V81     V75    10.001   1_545     S
V82     V71    10.001   1_556     S
V82     Er104    10.0   .     S
V82     V83    10.0   .     S
V82     V84    10.0   .     S
V83     Er97    10.0   .     S
V83     V84    10.0   .     S
V83     V78    10.001   1_545     S
V84     Er101    10.0   .     S
Er85     Er93    10.0   .     S
Er85     Er87    10.0   .     S
Er85     Er91    10.0   .     S
Er86     Er87    10.0   .     S
Er86     Er92    10.0   .     S
Er86     Er95    10.0   .     S
Er86     V174    10.0   .     S
Er87     Er91    10.0   .     S
Er88     Er94    10.0   .     S
Er88     Er90    10.0   .     S
Er88     Er89    10.0   .     S
Er88     V121    10.0   .     S
Er89     Er92    10.0   .     S
Er89     Er90    10.0   .     S
Er89     V123    10.0   .     S
Er90     Er91    10.0   .     S
Er90     V122    10.0   .     S
Er92     Er95    10.0   .     S
Er92     V172    10.0   .     S
Er93     Er96    10.0   .     S
Er93     Er94    10.0   .     S
Er94     Er96    10.0   .     S
Er95     Er96    10.0   .     S
Er95     V173    10.0   .     S
Er97     Er98    10.0   .     S
Er97     Er101    10.0   .     S
Er97     Er104    10.0   .     S
Er98     Er100    10.0   .     S
Er98     Er105    10.0   .     S
Er98     V181    10.0   .     S
Er99     Er100    10.0   .     S
Er99     Er103    10.0   .     S
Er99     Er102    10.0   .     S
Er99     V131    10.0   .     S
Er100     Er105    10.0   .     S
Er100     V183    10.0   .     S
Er101     Er108    10.0   .     S
Er101     Er104    10.0   .     S
Er102     Er107    10.0   .     S
Er102     Er103    10.0   .     S
Er102     V132    10.0   .     S
Er103     Er104    10.0   .     S
Er103     V130    10.0   .     S
Er105     Er106    10.0   .     S
Er105     V182    10.0   .     S
Er106     Er107    10.0   .     S
Er106     Er108    10.0   .     S
Er107     Er108    10.0   .     S
V109     Er163    10.0   .     S
V109     V110    10.0   .     S
V109     V111    10.0   .     S
V109     V117    10.001   1_655     S
V110     Er167    10.0   .     S
V110     V111    10.0   .     S
V110     V114    10.001   .     S
V111     Er157    10.0   .     S
V111     V125    10.001   1_554     S
V112     V113    10.0   .     S
V112     V114    10.0   .     S
V112     V118    10.001   1_655     S
V113     V114    10.0   .     S
V113     V122    10.001   1_554     S
V115     Er148    10.0   .     S
V115     V116    10.0   .     S
V115     V117    10.0   .     S
V115     V127    10.001   1_554     S
V116     Er146    10.0   .     S
V116     V117    10.0   .     S
V116     V120    10.001   .     S
V117     Er150    10.0   .     S
V117     V109    10.001   1_455     S
V118     V119    10.0   .     S
V118     V120    10.0   .     S
V118     V112    10.001   1_455     S
V119     V120    10.0   .     S
V119     V130    10.001   1_554     S
V121     V122    10.0   .     S
V121     V123    10.0   .     S
V121     V124    10.001   .     S
V122     V113    10.001   1_556     S
V122     V123    10.0   .     S
V123     V131    10.001   1_655     S
V124     Er137    10.0   .     S
V124     V125    10.0   .     S
V124     V126    10.0   .     S
V125     V111    10.001   1_556     S
V125     Er138    10.0   .     S
V125     V126    10.0   .     S
V126     Er141    10.0   .     S
V126     V129    10.001   1_655     S
V127     V115    10.001   1_556     S
V127     V128    10.0   .     S
V127     V129    10.0   .     S
V128     V129    10.0   .     S
V128     V132    10.001   .     S
V129     V126    10.001   1_455     S
V130     V119    10.001   1_556     S
V130     V131    10.0   .     S
V130     V132    10.0   .     S
V131     V132    10.0   .     S
V131     V123    10.001   1_455     S
Er133     Er134    10.0   .     S
Er133     Er136    10.0   .     S
Er133     Er135    10.0   .     S
Er134     Er135    10.0   .     S
Er134     Er144    10.0   .     S
Er135     Er137    10.0   .     S
Er136     Er143    10.0   .     S
Er136     Er139    10.0   .     S
Er137     Er141    10.0   .     S
Er137     Er138    10.0   .     S
Er138     Er139    10.0   .     S
Er138     Er141    10.0   .     S
Er139     Er143    10.0   .     S
Er140     Er141    10.0   .     S
Er140     Er144    10.0   .     S
Er140     Er142    10.0   .     S
Er140     V177    10.0   .     S
Er142     Er143    10.0   .     S
Er142     Er144    10.0   .     S
Er142     V176    10.0   .     S
Er144     V175    10.0   .     S
Er145     Er146    10.0   .     S
Er145     Er154    10.0   .     S
Er145     Er156    10.0   .     S
Er146     Er150    10.0   .     S
Er146     Er148    10.0   .     S
Er147     Er148    10.0   .     S
Er147     Er155    10.0   .     S
Er147     Er153    10.0   .     S
Er148     Er150    10.0   .     S
Er149     Er150    10.0   .     S
Er149     Er152    10.0   .     S
Er149     Er151    10.0   .     S
Er149     V191    10.0   .     S
Er151     Er154    10.0   .     S
Er151     Er152    10.0   .     S
Er151     V192    10.0   .     S
Er152     Er153    10.0   .     S
Er152     V190    10.0   .     S
Er153     Er155    10.0   .     S
Er154     Er156    10.0   .     S
Er155     Er156    10.0   .     S
Er157     Er158    10.0   .     S
Er157     Er163    10.0   .     S
Er157     Er167    10.0   .     S
Er158     Er164    10.0   .     S
Er158     Er162    10.0   .     S
Er159     Er166    10.0   .     S
Er159     Er161    10.0   .     S
Er159     Er160    10.0   .     S
Er159     V178    10.0   .     S
Er160     Er163    10.0   .     S
Er160     Er161    10.0   .     S
Er160     V180    10.0   .     S
Er161     Er162    10.0   .     S
Er161     V179    10.0   .     S
Er162     Er164    10.0   .     S
Er163     Er167    10.0   .     S
Er164     Er165    10.0   .     S
Er165     Er168    10.0   .     S
Er165     Er166    10.0   .     S
Er166     Er168    10.0   .     S
Er167     Er168    10.0   .     S
V169     V170    10.0   .     S
V169     V171    10.0   .     S
V169     V185    10.001   1_655     S
V170     V171    10.0   .     S
V170     V179    10.001   1_545     S
V171     V173    10.001   .     S
V172     V173    10.0   .     S
V172     V174    10.0   .     S
V172     V183    10.001   1_655     S
V173     V174    10.0   .     S
V174     V176    10.001   1_545     S
V175     V176    10.0   .     S
V175     V177    10.0   .     S
V175     V178    10.001   .     S
V176     V174    10.001   1_565     S
V176     V177    10.0   .     S
V177     V189    10.001   1_655     S
V178     V179    10.0   .     S
V178     V180    10.0   .     S
V179     V170    10.001   1_565     S
V179     V180    10.0   .     S
V180     V191    10.001   1_655     S
V181     V182    10.0   .     S
V181     V183    10.0   .     S
V181     V187    10.001   1_545     S
V182     V183    10.0   .     S
V182     V186    10.001   .     S
V183     V172    10.001   1_455     S
V184     V185    10.0   .     S
V184     V186    10.0   .     S
V184     V190    10.001   1_545     S
V185     V186    10.0   .     S
V185     V169    10.001   1_455     S
V187     V181    10.001   1_565     S
V187     V188    10.0   .     S
V187     V189    10.0   .     S
V188     V189    10.0   .     S
V188     V192    10.001   .     S
V189     V177    10.001   1_455     S
V190     V184    10.001   1_565     S
V190     V191    10.0   .     S
V190     V192    10.0   .     S
V191     V192    10.0   .     S
V191     V180    10.001   1_455     S
