data_bau
_audit_creation_date              2020-02-04
_audit_creation_method            'Pymatgen'
_symmetry_space_group_name_H-M    'P1'
_symmetry_Int_Tables_number       1
loop_
_symmetry_equiv_pos_as_xyz
  x,y,z
_cell_length_a                    102.7563
_cell_length_b                    102.7563
_cell_length_c                    102.7563
_cell_angle_alpha                 90.0
_cell_angle_beta                 90.0
_cell_angle_gamma                 90.0
loop_
_atom_site_label
_atom_site_type_symbol
_atom_site_fract_x
_atom_site_fract_y
_atom_site_fract_z
Er1     Er     0.4438   0.7374   0.375
Er2     Er     0.375   0.7374   0.4438
Er3     Er     0.3062   0.7374   0.375
Er4     Er     0.375   0.7374   0.3062
Er5     Er     0.7626   0.125   0.6938
Er6     Er     0.7626   0.125   0.5562
Er7     Er     0.7626   0.1938   0.625
Er8     Er     0.7626   0.0562   0.625
Er9     Er     0.6938   0.125   0.7626
Er10     Er     0.5562   0.125   0.7626
Er11     Er     0.625   0.1938   0.7626
Er12     Er     0.625   0.0562   0.7626
Er13     Er     0.4438   0.0126   0.375
Er14     Er     0.375   0.0126   0.4438
Er15     Er     0.3062   0.0126   0.375
Er16     Er     0.375   0.0126   0.3062
Er17     Er     0.125   0.6938   0.7626
Er18     Er     0.125   0.5562   0.7626
Er19     Er     0.0562   0.625   0.7626
Er20     Er     0.1938   0.625   0.7626
Er21     Er     0.6938   0.7626   0.125
Er22     Er     0.5562   0.7626   0.125
Er23     Er     0.625   0.7626   0.1938
Er24     Er     0.625   0.7626   0.0562
Er25     Er     0.3062   0.375   0.7374
Er26     Er     0.4438   0.375   0.7374
Er27     Er     0.375   0.4438   0.7374
Er28     Er     0.375   0.3062   0.7374
Er29     Er     0.125   0.7626   0.6938
Er30     Er     0.125   0.7626   0.5562
Er31     Er     0.0562   0.7626   0.625
Er32     Er     0.1938   0.7626   0.625
Er33     Er     0.7626   0.6938   0.125
Er34     Er     0.7626   0.5562   0.125
Er35     Er     0.7626   0.625   0.1938
Er36     Er     0.7626   0.625   0.0562
Er37     Er     0.7374   0.4438   0.375
Er38     Er     0.7374   0.375   0.4438
Er39     Er     0.7374   0.3062   0.375
Er40     Er     0.7374   0.375   0.3062
Er41     Er     0.0126   0.4438   0.375
Er42     Er     0.0126   0.375   0.4438
Er43     Er     0.0126   0.3062   0.375
Er44     Er     0.0126   0.375   0.3062
Er45     Er     0.0126   0.8062   0.875
Er46     Er     0.0126   0.875   0.8062
Er47     Er     0.0126   0.875   0.9438
Er48     Er     0.0126   0.9438   0.875
Er49     Er     0.4438   0.875   0.5126
Er50     Er     0.375   0.8062   0.5126
Er51     Er     0.3062   0.875   0.5126
Er52     Er     0.375   0.9438   0.5126
Er53     Er     0.6938   0.4874   0.125
Er54     Er     0.5562   0.4874   0.125
Er55     Er     0.625   0.4874   0.1938
Er56     Er     0.625   0.4874   0.0562
Er57     Er     0.5126   0.3062   0.875
Er58     Er     0.5126   0.4438   0.875
Er59     Er     0.5126   0.375   0.8062
Er60     Er     0.5126   0.375   0.9438
Er61     Er     0.2626   0.625   0.6938
Er62     Er     0.2626   0.6938   0.625
Er63     Er     0.2626   0.625   0.5562
Er64     Er     0.2626   0.5562   0.625
V65     V     0.8188   0.5   0.1812
V66     V     0.6812   0.4312   0.25
V67     V     0.6812   0.5   0.3188
V68     V     0.75   0.5688   0.3188
V69     V     0.75   0.4312   0.1812
V70     V     0.8188   0.5688   0.25
Er71     Er     0.625   0.6938   0.2626
Er72     Er     0.6938   0.625   0.2626
Er73     Er     0.625   0.5562   0.2626
Er74     Er     0.5562   0.625   0.2626
Er75     Er     0.8062   0.5126   0.375
Er76     Er     0.875   0.5126   0.4438
Er77     Er     0.9438   0.5126   0.375
Er78     Er     0.875   0.5126   0.3062
V79     V     0.25   0.8188   0.5688
V80     V     0.1812   0.8188   0.5
V81     V     0.25   0.6812   0.4312
V82     V     0.1812   0.75   0.4312
V83     V     0.3188   0.6812   0.5
V84     V     0.3188   0.75   0.5688
V85     V     0.75   0.1812   0.4312
V86     V     0.6812   0.25   0.4312
V87     V     0.6812   0.3188   0.5
V88     V     0.75   0.3188   0.5688
V89     V     0.8188   0.25   0.5688
V90     V     0.8188   0.1812   0.5
Er91     Er     0.6938   0.125   0.4874
Er92     Er     0.5562   0.125   0.4874
Er93     Er     0.625   0.1938   0.4874
Er94     Er     0.625   0.0562   0.4874
Er95     Er     0.9874   0.625   0.6938
Er96     Er     0.9874   0.5562   0.625
Er97     Er     0.9874   0.625   0.5562
Er98     Er     0.9874   0.6938   0.625
V99     V     0.0   0.5688   0.4312
V100     V     0.9312   0.5688   0.5
V101     V     0.9312   0.5   0.5688
V102     V     0.0688   0.4312   0.5
V103     V     0.0   0.4312   0.5688
V104     V     0.0688   0.5   0.4312
Er105     Er     0.8062   0.375   0.5126
Er106     Er     0.875   0.4438   0.5126
Er107     Er     0.875   0.3062   0.5126
Er108     Er     0.9438   0.375   0.5126
Er109     Er     0.125   0.6938   0.4874
Er110     Er     0.125   0.5562   0.4874
Er111     Er     0.1938   0.625   0.4874
Er112     Er     0.0562   0.625   0.4874
V113     V     0.5   0.3188   0.6812
V114     V     0.4312   0.25   0.6812
V115     V     0.4312   0.1812   0.75
V116     V     0.5688   0.3188   0.75
V117     V     0.5688   0.25   0.8188
V118     V     0.5   0.1812   0.8188
Er119     Er     0.6938   0.2626   0.625
Er120     Er     0.625   0.2626   0.6938
Er121     Er     0.5562   0.2626   0.625
Er122     Er     0.625   0.2626   0.5562
Er123     Er     0.4874   0.125   0.6938
Er124     Er     0.4874   0.125   0.5562
Er125     Er     0.4874   0.1938   0.625
Er126     Er     0.4874   0.0562   0.625
Er127     Er     0.6938   0.9874   0.625
Er128     Er     0.625   0.9874   0.5562
Er129     Er     0.5562   0.9874   0.625
Er130     Er     0.625   0.9874   0.6938
V131     V     0.5688   0.9312   0.5
V132     V     0.4312   0.0   0.5688
V133     V     0.5   0.9312   0.5688
V134     V     0.5   0.0688   0.4312
V135     V     0.5688   0.0   0.4312
V136     V     0.4312   0.0688   0.5
V137     V     0.25   0.5688   0.8188
V138     V     0.1812   0.5   0.8188
V139     V     0.1812   0.4312   0.75
V140     V     0.25   0.4312   0.6812
V141     V     0.3188   0.5   0.6812
V142     V     0.3188   0.5688   0.75
Er143     Er     0.5126   0.8062   0.375
Er144     Er     0.5126   0.875   0.4438
Er145     Er     0.5126   0.875   0.3062
Er146     Er     0.5126   0.9438   0.375
Er147     Er     0.4874   0.625   0.0562
Er148     Er     0.4874   0.625   0.1938
Er149     Er     0.4874   0.5562   0.125
Er150     Er     0.4874   0.6938   0.125
V151     V     0.5   0.8188   0.1812
V152     V     0.5   0.6812   0.3188
V153     V     0.4312   0.75   0.1812
V154     V     0.4312   0.6812   0.25
V155     V     0.5688   0.75   0.3188
V156     V     0.5688   0.8188   0.25
Er157     Er     0.4438   0.5126   0.875
Er158     Er     0.375   0.5126   0.8062
Er159     Er     0.3062   0.5126   0.875
Er160     Er     0.375   0.5126   0.9438
Er161     Er     0.625   0.6938   0.9874
Er162     Er     0.6938   0.625   0.9874
Er163     Er     0.625   0.5562   0.9874
Er164     Er     0.5562   0.625   0.9874
V165     V     0.4312   0.5   0.0688
V166     V     0.5688   0.4312   0.0
V167     V     0.5   0.4312   0.0688
V168     V     0.5688   0.5   0.9312
V169     V     0.5   0.5688   0.9312
V170     V     0.4312   0.5688   0.0
Er171     Er     0.125   0.4874   0.6938
Er172     Er     0.125   0.4874   0.5562
Er173     Er     0.1938   0.4874   0.625
Er174     Er     0.0562   0.4874   0.625
V175     V     0.6812   0.0   0.8188
V176     V     0.75   0.0688   0.8188
V177     V     0.75   0.9312   0.6812
V178     V     0.6812   0.9312   0.75
V179     V     0.8188   0.0   0.6812
V180     V     0.8188   0.0688   0.75
Er181     Er     0.8062   0.875   0.7374
Er182     Er     0.875   0.8062   0.7374
Er183     Er     0.9438   0.875   0.7374
Er184     Er     0.875   0.9438   0.7374
V185     V     0.0   0.8188   0.6812
V186     V     0.0688   0.8188   0.75
V187     V     0.9312   0.6812   0.75
V188     V     0.9312   0.75   0.6812
V189     V     0.0   0.6812   0.8188
V190     V     0.0688   0.75   0.8188
Er191     Er     0.7374   0.875   0.8062
Er192     Er     0.7374   0.8062   0.875
Er193     Er     0.7374   0.875   0.9438
Er194     Er     0.7374   0.9438   0.875
Er195     Er     0.8062   0.7374   0.875
Er196     Er     0.875   0.7374   0.8062
Er197     Er     0.875   0.7374   0.9438
Er198     Er     0.9438   0.7374   0.875
V199     V     0.8188   0.6812   0.0
V200     V     0.8188   0.75   0.0688
V201     V     0.6812   0.75   0.9312
V202     V     0.75   0.6812   0.9312
V203     V     0.6812   0.8188   0.0
V204     V     0.75   0.8188   0.0688
Er205     Er     0.8062   0.0126   0.875
Er206     Er     0.875   0.0126   0.8062
Er207     Er     0.875   0.0126   0.9438
Er208     Er     0.9438   0.0126   0.875
Er209     Er     0.875   0.8062   0.0126
Er210     Er     0.8062   0.875   0.0126
Er211     Er     0.9438   0.875   0.0126
Er212     Er     0.875   0.9438   0.0126
Er213     Er     0.1938   0.125   0.2626
Er214     Er     0.125   0.1938   0.2626
Er215     Er     0.0562   0.125   0.2626
Er216     Er     0.125   0.0562   0.2626
Er217     Er     0.2626   0.1938   0.125
Er218     Er     0.2626   0.0562   0.125
Er219     Er     0.2626   0.125   0.0562
Er220     Er     0.2626   0.125   0.1938
Er221     Er     0.2374   0.875   0.4438
Er222     Er     0.2374   0.8062   0.375
Er223     Er     0.2374   0.875   0.3062
Er224     Er     0.2374   0.9438   0.375
V225     V     0.3188   0.0688   0.25
V226     V     0.3188   0.0   0.1812
V227     V     0.25   0.9312   0.1812
V228     V     0.1812   0.9312   0.25
V229     V     0.25   0.0688   0.3188
V230     V     0.1812   0.0   0.3188
Er231     Er     0.4438   0.875   0.2374
Er232     Er     0.375   0.8062   0.2374
Er233     Er     0.3062   0.875   0.2374
Er234     Er     0.375   0.9438   0.2374
Er235     Er     0.125   0.2626   0.0562
Er236     Er     0.0562   0.2626   0.125
Er237     Er     0.1938   0.2626   0.125
Er238     Er     0.125   0.2626   0.1938
Er239     Er     0.4438   0.375   0.0126
Er240     Er     0.3062   0.375   0.0126
Er241     Er     0.375   0.4438   0.0126
Er242     Er     0.375   0.3062   0.0126
Er243     Er     0.8062   0.375   0.2374
Er244     Er     0.875   0.4438   0.2374
Er245     Er     0.9438   0.375   0.2374
Er246     Er     0.875   0.3062   0.2374
Er247     Er     0.875   0.2374   0.4438
Er248     Er     0.8062   0.2374   0.375
Er249     Er     0.875   0.2374   0.3062
Er250     Er     0.9438   0.2374   0.375
Er251     Er     0.9874   0.125   0.0562
Er252     Er     0.9874   0.125   0.1938
Er253     Er     0.9874   0.1938   0.125
Er254     Er     0.9874   0.0562   0.125
V255     V     0.9312   0.25   0.1812
V256     V     0.0688   0.3188   0.25
V257     V     0.0688   0.25   0.3188
V258     V     0.0   0.1812   0.3188
V259     V     0.9312   0.1812   0.25
V260     V     0.0   0.3188   0.1812
Er261     Er     0.375   0.2374   0.8062
Er262     Er     0.4438   0.2374   0.875
Er263     Er     0.3062   0.2374   0.875
Er264     Er     0.375   0.2374   0.9438
Er265     Er     0.2374   0.375   0.8062
Er266     Er     0.2374   0.4438   0.875
Er267     Er     0.2374   0.375   0.9438
Er268     Er     0.2374   0.3062   0.875
Er269     Er     0.125   0.9874   0.1938
Er270     Er     0.1938   0.9874   0.125
Er271     Er     0.125   0.9874   0.0562
Er272     Er     0.0562   0.9874   0.125
V273     V     0.3188   0.25   0.0688
V274     V     0.3188   0.1812   0.0
V275     V     0.1812   0.25   0.9312
V276     V     0.25   0.1812   0.9312
V277     V     0.1812   0.3188   0.0
V278     V     0.25   0.3188   0.0688
Er279     Er     0.1938   0.125   0.9874
Er280     Er     0.0562   0.125   0.9874
Er281     Er     0.125   0.0562   0.9874
Er282     Er     0.125   0.1938   0.9874
V283     V     0.0688   0.9312   0.0
V284     V     0.0688   0.0   0.9312
V285     V     0.9312   0.0   0.0688
V286     V     0.0   0.9312   0.0688
V287     V     0.0   0.0688   0.9312
V288     V     0.9312   0.0688   0.0
loop_
_geom_bond_atom_site_label_1
_geom_bond_atom_site_label_2
_geom_bond_distance
_geom_bond_site_symmetry_2
_ccdc_geom_bond_type
Er1     Er4    9.999   .     S
Er1     Er2    9.999   .     S
Er1     V152    10.0   .     S
Er1     Er143    10.001   .     S
Er2     Er3    9.999   .     S
Er2     V83    10.0   .     S
Er2     Er50    10.001   .     S
Er3     Er4    9.999   .     S
Er3     V81    10.0   .     S
Er3     Er222    10.001   .     S
Er4     V154    10.0   .     S
Er4     Er232    10.001   .     S
Er5     Er8    9.999   .     S
Er5     Er7    9.999   .     S
Er5     V180    10.0   .     S
Er5     Er9    10.001   .     S
Er6     Er8    9.999   .     S
Er6     Er7    9.999   .     S
Er6     V90    10.0   .     S
Er6     Er91    10.001   .     S
Er7     V89    10.0   .     S
Er7     Er119    10.001   .     S
Er8     V179    10.0   .     S
Er8     Er127    10.001   1_545     S
Er9     Er12    9.999   .     S
Er9     Er11    9.999   .     S
Er9     V176    10.0   .     S
Er10     Er12    9.999   .     S
Er10     Er11    9.999   .     S
Er10     V118    10.0   .     S
Er10     Er123    10.001   .     S
Er11     V117    10.0   .     S
Er11     Er120    10.001   .     S
Er12     V175    10.0   .     S
Er12     Er130    10.001   1_545     S
Er13     Er16    9.999   .     S
Er13     Er14    9.999   .     S
Er13     V134    10.0   .     S
Er13     Er146    10.001   1_545     S
Er14     Er15    9.999   .     S
Er14     V136    10.0   .     S
Er14     Er52    10.001   1_545     S
Er15     Er16    9.999   .     S
Er15     V229    10.0   .     S
Er15     Er224    10.001   1_545     S
Er16     V225    10.0   .     S
Er16     Er234    10.001   1_545     S
Er17     Er19    9.999   .     S
Er17     Er20    9.999   .     S
Er17     V190    10.0   .     S
Er17     Er29    10.001   .     S
Er18     Er19    9.999   .     S
Er18     Er20    9.999   .     S
Er18     V138    10.0   .     S
Er18     Er171    10.001   .     S
Er19     V189    10.0   .     S
Er19     Er95    10.001   1_455     S
Er20     V137    10.0   .     S
Er20     Er61    10.001   .     S
Er21     Er24    9.999   .     S
Er21     Er23    9.999   .     S
Er21     V204    10.0   .     S
Er21     Er33    10.001   .     S
Er22     Er24    9.999   .     S
Er22     Er23    9.999   .     S
Er22     V151    10.0   .     S
Er22     Er150    10.001   .     S
Er23     V156    10.0   .     S
Er23     Er71    10.001   .     S
Er24     V203    10.0   .     S
Er24     Er161    10.001   1_554     S
Er25     Er28    9.999   .     S
Er25     Er27    9.999   .     S
Er25     V140    10.0   .     S
Er25     Er265    10.001   .     S
Er26     Er28    9.999   .     S
Er26     Er27    9.999   .     S
Er26     V113    10.0   .     S
Er26     Er59    10.001   .     S
Er27     V141    10.0   .     S
Er27     Er158    10.001   .     S
Er28     V114    10.0   .     S
Er28     Er261    10.001   .     S
Er29     Er31    9.999   .     S
Er29     Er32    9.999   .     S
Er29     V186    10.0   .     S
Er30     Er31    9.999   .     S
Er30     Er32    9.999   .     S
Er30     V80    10.0   .     S
Er30     Er109    10.001   .     S
Er31     V185    10.0   .     S
Er31     Er98    10.001   1_455     S
Er32     V79    10.0   .     S
Er32     Er62    10.001   .     S
Er33     Er36    9.999   .     S
Er33     Er35    9.999   .     S
Er33     V200    10.0   .     S
Er34     Er36    9.999   .     S
Er34     Er35    9.999   .     S
Er34     V65    10.0   .     S
Er34     Er53    10.001   .     S
Er35     V70    10.0   .     S
Er35     Er72    10.001   .     S
Er36     V199    10.0   .     S
Er36     Er162    10.001   1_554     S
Er37     Er40    9.999   .     S
Er37     Er38    9.999   .     S
Er37     V67    10.0   .     S
Er37     Er75    10.001   .     S
Er38     Er39    9.999   .     S
Er38     V87    10.0   .     S
Er38     Er105    10.001   .     S
Er39     Er40    9.999   .     S
Er39     V86    10.0   .     S
Er39     Er248    10.001   .     S
Er40     V66    10.0   .     S
Er40     Er243    10.001   .     S
Er41     Er44    9.999   .     S
Er41     Er42    9.999   .     S
Er41     V104    10.0   .     S
Er41     Er77    10.001   1_455     S
Er42     Er43    9.999   .     S
Er42     V102    10.0   .     S
Er42     Er108    10.001   1_455     S
Er43     Er44    9.999   .     S
Er43     V257    10.0   .     S
Er43     Er250    10.001   1_455     S
Er44     V256    10.0   .     S
Er44     Er245    10.001   1_455     S
Er45     Er47    9.999   .     S
Er45     Er46    9.999   .     S
Er45     V190    10.0   .     S
Er45     Er198    10.001   1_455     S
Er46     Er48    9.999   .     S
Er46     V186    10.0   .     S
Er46     Er183    10.001   1_455     S
Er47     Er48    9.999   .     S
Er47     V283    10.0   1_556     S
Er47     Er211    10.001   1_456     S
Er48     V284    10.0   1_565     S
Er48     Er208    10.001   1_465     S
Er49     Er52    9.999   .     S
Er49     Er50    9.999   .     S
Er49     V133    10.0   .     S
Er49     Er144    10.001   .     S
Er50     Er51    9.999   .     S
Er50     V84    10.0   .     S
Er51     Er52    9.999   .     S
Er51     V79    10.0   .     S
Er51     Er221    10.001   .     S
Er52     V132    10.0   1_565     S
Er52     Er14    10.001   1_565     S
Er53     Er56    9.999   .     S
Er53     Er55    9.999   .     S
Er53     V69    10.0   .     S
Er54     Er56    9.999   .     S
Er54     Er55    9.999   .     S
Er54     V167    10.0   .     S
Er54     Er149    10.001   .     S
Er55     V66    10.0   .     S
Er55     Er73    10.001   .     S
Er56     V166    10.0   .     S
Er56     Er163    10.001   1_554     S
Er57     Er60    9.999   .     S
Er57     Er59    9.999   .     S
Er57     V117    10.0   .     S
Er57     Er262    10.001   .     S
Er58     Er60    9.999   .     S
Er58     Er59    9.999   .     S
Er58     V168    10.0   .     S
Er58     Er157    10.001   .     S
Er59     V116    10.0   .     S
Er60     V166    10.0   1_556     S
Er60     Er239    10.001   1_556     S
Er61     Er64    9.999   .     S
Er61     Er62    9.999   .     S
Er61     V142    10.0   .     S
Er62     Er63    9.999   .     S
Er62     V84    10.0   .     S
Er63     Er64    9.999   .     S
Er63     V83    10.0   .     S
Er63     Er111    10.001   .     S
Er64     V141    10.0   .     S
Er64     Er173    10.001   .     S
V65     V70    9.999   .     S
V65     V69    9.999   .     S
V65     Er244    10.0   .     S
V66     V67    9.999   .     S
V66     V69    9.999   .     S
V67     V68    9.999   .     S
V67     Er73    10.0   .     S
V68     V70    9.999   .     S
V68     Er72    10.0   .     S
V68     Er75    10.0   .     S
V69     Er243    10.0   .     S
V70     Er78    10.0   .     S
Er71     Er74    9.999   .     S
Er71     Er72    9.999   .     S
Er71     V155    10.0   .     S
Er72     Er73    9.999   .     S
Er73     Er74    9.999   .     S
Er74     V152    10.0   .     S
Er74     Er148    10.001   .     S
Er75     Er78    9.999   .     S
Er75     Er76    9.999   .     S
Er76     Er77    9.999   .     S
Er76     V100    10.0   .     S
Er76     Er106    10.001   .     S
Er77     Er78    9.999   .     S
Er77     V99    10.0   1_655     S
Er77     Er41    10.001   1_655     S
Er78     Er244    10.001   .     S
V79     V80    9.999   .     S
V79     V84    9.999   .     S
V80     V82    9.999   .     S
V80     Er221    10.0   .     S
V81     V82    9.999   .     S
V81     V83    9.999   .     S
V81     Er111    10.0   .     S
V82     Er222    10.0   .     S
V82     Er109    10.0   .     S
V83     V84    9.999   .     S
V85     V90    9.999   .     S
V85     V86    9.999   .     S
V85     Er91    10.0   .     S
V85     Er248    10.0   .     S
V86     V87    9.999   .     S
V86     Er93    10.0   .     S
V87     V88    9.999   .     S
V87     Er122    10.0   .     S
V88     V89    9.999   .     S
V88     Er119    10.0   .     S
V88     Er105    10.0   .     S
V89     V90    9.999   .     S
V89     Er107    10.0   .     S
V90     Er247    10.0   .     S
Er91     Er94    9.999   .     S
Er91     Er93    9.999   .     S
Er92     Er94    9.999   .     S
Er92     Er93    9.999   .     S
Er92     V134    10.0   .     S
Er92     Er124    10.001   .     S
Er93     Er122    10.001   .     S
Er94     V135    10.0   .     S
Er94     Er128    10.001   1_545     S
Er95     Er96    9.999   .     S
Er95     Er98    9.999   .     S
Er95     V187    10.0   .     S
Er95     Er19    10.001   1_655     S
Er96     Er97    9.999   .     S
Er96     V101    10.0   .     S
Er96     Er174    10.001   1_655     S
Er97     Er98    9.999   .     S
Er97     V100    10.0   .     S
Er97     Er112    10.001   1_655     S
Er98     V188    10.0   .     S
Er98     Er31    10.001   1_655     S
V99     Er77    10.0   1_455     S
V99     V100    9.999   1_455     S
V99     V104    9.999   .     S
V99     Er112    10.0   .     S
V100     V99    9.999   1_655     S
V100     V101    9.999   .     S
V101     V103    9.999   1_655     S
V101     Er106    10.0   .     S
V102     V104    9.999   .     S
V102     V103    9.999   .     S
V102     Er172    10.0   .     S
V103     V101    9.999   1_455     S
V103     Er108    10.0   1_455     S
V103     Er174    10.0   .     S
V104     Er110    10.0   .     S
Er105     Er107    9.999   .     S
Er105     Er106    9.999   .     S
Er106     Er108    9.999   .     S
Er107     Er108    9.999   .     S
Er107     Er247    10.001   .     S
Er108     V103    10.0   1_655     S
Er108     Er42    10.001   1_655     S
Er109     Er112    9.999   .     S
Er109     Er111    9.999   .     S
Er110     Er112    9.999   .     S
Er110     Er111    9.999   .     S
Er110     Er172    10.001   .     S
Er112     Er97    10.001   1_455     S
V113     V116    9.999   .     S
V113     V114    9.999   .     S
V113     Er121    10.0   .     S
V114     V115    9.999   .     S
V114     Er125    10.0   .     S
V115     V118    9.999   .     S
V115     Er261    10.0   .     S
V115     Er123    10.0   .     S
V116     V117    9.999   .     S
V116     Er120    10.0   .     S
V117     V118    9.999   .     S
V118     Er262    10.0   .     S
Er119     Er122    9.999   .     S
Er119     Er120    9.999   .     S
Er120     Er121    9.999   .     S
Er121     Er122    9.999   .     S
Er121     Er125    10.001   .     S
Er123     Er126    9.999   .     S
Er123     Er125    9.999   .     S
Er124     Er126    9.999   .     S
Er124     Er125    9.999   .     S
Er124     V136    10.0   .     S
Er126     V132    10.0   .     S
Er126     Er129    10.001   1_545     S
Er127     Er128    9.999   .     S
Er127     Er130    9.999   .     S
Er127     V177    10.0   .     S
Er127     Er8    10.001   1_565     S
Er128     Er129    9.999   .     S
Er128     V131    10.0   .     S
Er128     Er94    10.001   1_565     S
Er129     Er130    9.999   .     S
Er129     V133    10.0   .     S
Er129     Er126    10.001   1_565     S
Er130     V178    10.0   .     S
Er130     Er12    10.001   1_565     S
V131     V135    9.999   1_565     S
V131     V133    9.999   .     S
V131     Er144    10.0   .     S
V132     V133    9.999   1_545     S
V132     V136    9.999   .     S
V132     Er52    10.0   1_545     S
V133     V132    9.999   1_565     S
V134     V136    9.999   .     S
V134     V135    9.999   .     S
V135     V131    9.999   1_545     S
V135     Er146    10.0   1_545     S
V137     V138    9.999   .     S
V137     V142    9.999   .     S
V137     Er159    10.0   .     S
V138     V139    9.999   .     S
V138     Er266    10.0   .     S
V139     V140    9.999   .     S
V139     Er265    10.0   .     S
V139     Er171    10.0   .     S
V140     V141    9.999   .     S
V140     Er173    10.0   .     S
V141     V142    9.999   .     S
V142     Er158    10.0   .     S
Er143     Er145    9.999   .     S
Er143     Er144    9.999   .     S
Er143     V155    10.0   .     S
Er144     Er146    9.999   .     S
Er145     Er146    9.999   .     S
Er145     V156    10.0   .     S
Er145     Er231    10.001   .     S
Er146     V135    10.0   1_565     S
Er146     Er13    10.001   1_565     S
Er147     Er149    9.999   .     S
Er147     Er150    9.999   .     S
Er147     V170    10.0   .     S
Er147     Er164    10.001   1_554     S
Er148     Er149    9.999   .     S
Er148     Er150    9.999   .     S
Er148     V154    10.0   .     S
Er149     V165    10.0   .     S
Er150     V153    10.0   .     S
V151     V156    9.999   .     S
V151     V153    9.999   .     S
V151     Er231    10.0   .     S
V152     V155    9.999   .     S
V152     V154    9.999   .     S
V153     V154    9.999   .     S
V153     Er232    10.0   .     S
V155     V156    9.999   .     S
Er157     Er158    9.999   .     S
Er157     Er160    9.999   .     S
Er157     V169    10.0   .     S
Er158     Er159    9.999   .     S
Er159     Er160    9.999   .     S
Er159     Er266    10.001   .     S
Er160     V170    10.0   1_556     S
Er160     Er241    10.001   1_556     S
Er161     Er164    9.999   .     S
Er161     Er162    9.999   .     S
Er161     V201    10.0   .     S
Er161     Er24    10.001   1_556     S
Er162     Er163    9.999   .     S
Er162     V202    10.0   .     S
Er162     Er36    10.001   1_556     S
Er163     Er164    9.999   .     S
Er163     V168    10.0   .     S
Er163     Er56    10.001   1_556     S
Er164     V169    10.0   .     S
Er164     Er147    10.001   1_556     S
V165     V167    9.999   .     S
V165     V170    9.999   .     S
V165     Er241    10.0   .     S
V166     Er60    10.0   1_554     S
V166     V167    9.999   .     S
V166     V168    9.999   1_554     S
V167     Er239    10.0   .     S
V168     V166    9.999   1_556     S
V168     V169    9.999   .     S
V169     V170    9.999   1_556     S
V170     V169    9.999   1_554     S
V170     Er160    10.0   1_554     S
Er171     Er174    9.999   .     S
Er171     Er173    9.999   .     S
Er172     Er174    9.999   .     S
Er172     Er173    9.999   .     S
Er174     Er96    10.001   1_455     S
V175     V176    9.999   .     S
V175     V178    9.999   1_545     S
V175     Er194    10.0   1_545     S
V176     V180    9.999   .     S
V176     Er205    10.0   .     S
V177     V179    9.999   1_565     S
V177     V178    9.999   .     S
V177     Er181    10.0   .     S
V178     V175    9.999   1_565     S
V178     Er191    10.0   .     S
V179     V177    9.999   1_545     S
V179     V180    9.999   .     S
V179     Er184    10.0   1_545     S
V180     Er206    10.0   .     S
Er181     Er184    9.999   .     S
Er181     Er182    9.999   .     S
Er181     Er191    10.001   .     S
Er182     Er183    9.999   .     S
Er182     V188    10.0   .     S
Er182     Er196    10.001   .     S
Er183     Er184    9.999   .     S
Er183     V185    10.0   1_655     S
Er183     Er46    10.001   1_655     S
Er184     V179    10.0   1_565     S
Er184     Er206    10.001   1_565     S
V185     V186    9.999   .     S
V185     V188    9.999   1_455     S
V185     Er183    10.0   1_455     S
V186     V190    9.999   .     S
V187     V189    9.999   1_655     S
V187     V188    9.999   .     S
V187     Er196    10.0   .     S
V188     V185    9.999   1_655     S
V189     V187    9.999   1_455     S
V189     V190    9.999   .     S
V189     Er198    10.0   1_455     S
Er191     Er194    9.999   .     S
Er191     Er192    9.999   .     S
Er192     Er193    9.999   .     S
Er192     V201    10.0   .     S
Er192     Er195    10.001   .     S
Er193     Er194    9.999   .     S
Er193     V203    10.0   1_556     S
Er193     Er210    10.001   1_556     S
Er194     V175    10.0   1_565     S
Er194     Er205    10.001   1_565     S
Er195     Er197    9.999   .     S
Er195     Er196    9.999   .     S
Er195     V202    10.0   .     S
Er196     Er198    9.999   .     S
Er197     Er198    9.999   .     S
Er197     V199    10.0   1_556     S
Er197     Er209    10.001   1_556     S
Er198     V189    10.0   1_655     S
Er198     Er45    10.001   1_655     S
V199     V200    9.999   .     S
V199     V202    9.999   1_554     S
V199     Er197    10.0   1_554     S
V200     V204    9.999   .     S
V200     Er209    10.0   .     S
V201     V203    9.999   1_556     S
V201     V202    9.999   .     S
V202     V199    9.999   1_556     S
V203     V201    9.999   1_554     S
V203     V204    9.999   .     S
V203     Er193    10.0   1_554     S
V204     Er210    10.0   .     S
Er205     Er207    9.999   .     S
Er205     Er206    9.999   .     S
Er205     Er194    10.001   1_545     S
Er206     Er208    9.999   .     S
Er206     Er184    10.001   1_545     S
Er207     Er208    9.999   .     S
Er207     V288    10.0   1_556     S
Er207     Er212    10.001   1_546     S
Er208     V287    10.0   1_655     S
Er208     Er48    10.001   1_645     S
Er209     Er211    9.999   .     S
Er209     Er210    9.999   .     S
Er209     Er197    10.001   1_554     S
Er210     Er212    9.999   .     S
Er210     Er193    10.001   1_554     S
Er211     Er212    9.999   .     S
Er211     V286    10.0   1_655     S
Er211     Er47    10.001   1_654     S
Er212     V285    10.0   1_565     S
Er212     Er207    10.001   1_564     S
Er213     Er214    9.999   .     S
Er213     Er216    9.999   .     S
Er213     V229    10.0   .     S
Er213     Er220    10.001   .     S
Er214     Er215    9.999   .     S
Er214     V257    10.0   .     S
Er214     Er238    10.001   .     S
Er215     Er216    9.999   .     S
Er215     V258    10.0   .     S
Er215     Er252    10.001   1_455     S
Er216     V230    10.0   .     S
Er216     Er269    10.001   1_545     S
Er217     Er219    9.999   .     S
Er217     Er220    9.999   .     S
Er217     V273    10.0   .     S
Er217     Er237    10.001   .     S
Er218     Er219    9.999   .     S
Er218     Er220    9.999   .     S
Er218     V226    10.0   .     S
Er218     Er270    10.001   1_545     S
Er219     V274    10.0   .     S
Er219     Er279    10.001   1_554     S
Er220     V225    10.0   .     S
Er221     Er224    9.999   .     S
Er221     Er222    9.999   .     S
Er222     Er223    9.999   .     S
Er223     Er224    9.999   .     S
Er223     V228    10.0   .     S
Er223     Er233    10.001   .     S
Er224     V230    10.0   1_565     S
Er224     Er15    10.001   1_565     S
V225     V229    9.999   .     S
V225     V226    9.999   .     S
V226     V227    9.999   1_545     S
V226     Er234    10.0   1_545     S
V227     V226    9.999   1_565     S
V227     V228    9.999   .     S
V227     Er270    10.0   .     S
V227     Er233    10.0   .     S
V228     V230    9.999   1_565     S
V228     Er269    10.0   .     S
V229     V230    9.999   .     S
V230     Er224    10.0   1_545     S
V230     V228    9.999   1_545     S
Er231     Er234    9.999   .     S
Er231     Er232    9.999   .     S
Er232     Er233    9.999   .     S
Er233     Er234    9.999   .     S
Er234     V226    10.0   1_565     S
Er234     Er16    10.001   1_565     S
Er235     Er236    9.999   .     S
Er235     Er237    9.999   .     S
Er235     V277    10.0   .     S
Er235     Er282    10.001   1_554     S
Er236     Er238    9.999   .     S
Er236     V260    10.0   .     S
Er236     Er253    10.001   1_455     S
Er237     Er238    9.999   .     S
Er237     V278    10.0   .     S
Er238     V256    10.0   .     S
Er239     Er242    9.999   .     S
Er239     Er241    9.999   .     S
Er239     Er60    10.001   1_554     S
Er240     Er242    9.999   .     S
Er240     Er241    9.999   .     S
Er240     V278    10.0   .     S
Er240     Er267    10.001   1_554     S
Er241     Er160    10.001   1_554     S
Er242     V273    10.0   .     S
Er242     Er264    10.001   1_554     S
Er243     Er246    9.999   .     S
Er243     Er244    9.999   .     S
Er244     Er245    9.999   .     S
Er245     Er246    9.999   .     S
Er245     V260    10.0   1_655     S
Er245     Er44    10.001   1_655     S
Er246     V255    10.0   .     S
Er246     Er249    10.001   .     S
Er247     Er248    9.999   .     S
Er247     Er250    9.999   .     S
Er248     Er249    9.999   .     S
Er249     Er250    9.999   .     S
Er249     V259    10.0   .     S
Er250     V258    10.0   1_655     S
Er250     Er43    10.001   1_655     S
Er251     Er254    9.999   .     S
Er251     Er253    9.999   .     S
Er251     V288    10.0   .     S
Er251     Er280    10.001   1_654     S
Er252     Er254    9.999   .     S
Er252     Er253    9.999   .     S
Er252     V259    10.0   .     S
Er252     Er215    10.001   1_655     S
Er253     V255    10.0   .     S
Er253     Er236    10.001   1_655     S
Er254     V285    10.0   .     S
Er254     Er272    10.001   1_645     S
V255     V260    9.999   1_655     S
V255     V259    9.999   .     S
V256     V260    9.999   .     S
V256     V257    9.999   .     S
V257     V258    9.999   .     S
V258     Er250    10.0   1_455     S
V258     V259    9.999   1_455     S
V259     V258    9.999   1_655     S
V260     Er245    10.0   1_455     S
V260     V255    9.999   1_455     S
Er261     Er263    9.999   .     S
Er261     Er262    9.999   .     S
Er262     Er264    9.999   .     S
Er263     Er264    9.999   .     S
Er263     V276    10.0   .     S
Er263     Er268    10.001   .     S
Er264     V274    10.0   1_556     S
Er264     Er242    10.001   1_556     S
Er265     Er268    9.999   .     S
Er265     Er266    9.999   .     S
Er266     Er267    9.999   .     S
Er267     Er268    9.999   .     S
Er267     V277    10.0   1_556     S
Er267     Er240    10.001   1_556     S
Er268     V275    10.0   .     S
Er269     Er272    9.999   .     S
Er269     Er270    9.999   .     S
Er269     Er216    10.001   1_565     S
Er270     Er271    9.999   .     S
Er270     Er218    10.001   1_565     S
Er271     Er272    9.999   .     S
Er271     V283    10.0   .     S
Er271     Er281    10.001   1_564     S
Er272     V286    10.0   .     S
Er272     Er254    10.001   1_465     S
V273     V278    9.999   .     S
V273     V274    9.999   .     S
V274     Er264    10.0   1_554     S
V274     V276    9.999   1_554     S
V275     V277    9.999   1_556     S
V275     V276    9.999   .     S
V275     Er282    10.0   .     S
V276     V274    9.999   1_556     S
V276     Er279    10.0   .     S
V277     Er267    10.0   1_554     S
V277     V275    9.999   1_554     S
V277     V278    9.999   .     S
Er279     Er281    9.999   .     S
Er279     Er282    9.999   .     S
Er279     Er219    10.001   1_556     S
Er280     Er281    9.999   .     S
Er280     Er282    9.999   .     S
Er280     V287    10.0   .     S
Er280     Er251    10.001   1_456     S
Er281     V284    10.0   .     S
Er281     Er271    10.001   1_546     S
Er282     Er235    10.001   1_556     S
V283     V284    9.999   1_564     S
V283     V286    9.999   .     S
V283     Er47    10.0   1_554     S
V284     Er48    10.0   1_545     S
V284     V283    9.999   1_546     S
V284     V287    9.999   .     S
V285     V286    9.999   1_645     S
V285     V288    9.999   .     S
V285     Er212    10.0   1_545     S
V286     Er211    10.0   1_455     S
V286     V285    9.999   1_465     S
V287     V288    9.999   1_456     S
V287     Er208    10.0   1_455     S
V288     Er207    10.0   1_554     S
V288     V287    9.999   1_654     S
