data_bcsa
_audit_creation_date              2020-02-04
_audit_creation_method            'Pymatgen'
_symmetry_space_group_name_H-M    'P1'
_symmetry_Int_Tables_number       1
loop_
_symmetry_equiv_pos_as_xyz
  x,y,z
_cell_length_a                    54.2952
_cell_length_b                    54.2952
_cell_length_c                    54.2952
_cell_angle_alpha                 90.0
_cell_angle_beta                 90.0
_cell_angle_gamma                 90.0
loop_
_atom_site_label
_atom_site_type_symbol
_atom_site_fract_x
_atom_site_fract_y
_atom_site_fract_z
V1     V     0.8294   0.1561   0.793
V2     V     0.9206   0.043   0.9061
V3     V     0.1561   0.793   0.8294
V4     V     0.043   0.9061   0.9206
V5     V     0.793   0.8294   0.1561
V6     V     0.9061   0.9206   0.043
V7     V     0.293   0.1706   0.1561
V8     V     0.4061   0.0794   0.043
V9     V     0.4206   0.543   0.4061
V10     V     0.3294   0.6561   0.293
V11     V     0.0794   0.957   0.0939
V12     V     0.1706   0.8439   0.207
V13     V     0.5794   0.043   0.0939
V14     V     0.6706   0.1561   0.207
V15     V     0.0939   0.5794   0.043
V16     V     0.207   0.6706   0.1561
V17     V     0.0939   0.4206   0.457
V18     V     0.207   0.3294   0.3439
V19     V     0.8294   0.3439   0.293
V20     V     0.9206   0.457   0.4061
V21     V     0.293   0.8294   0.3439
V22     V     0.4061   0.9206   0.457
V23     V     0.6706   0.3439   0.707
V24     V     0.5794   0.457   0.5939
V25     V     0.5939   0.5794   0.457
V26     V     0.707   0.6706   0.3439
V27     V     0.3439   0.707   0.6706
V28     V     0.457   0.5939   0.5794
V29     V     0.207   0.1706   0.8439
V30     V     0.0939   0.0794   0.957
V31     V     0.4061   0.4206   0.543
V32     V     0.293   0.3294   0.6561
V33     V     0.3294   0.3439   0.207
V34     V     0.4206   0.457   0.0939
V35     V     0.1561   0.293   0.1706
V36     V     0.043   0.4061   0.0794
V37     V     0.207   0.8294   0.6561
V38     V     0.0939   0.9206   0.543
V39     V     0.4206   0.957   0.9061
V40     V     0.3294   0.8439   0.793
V41     V     0.4061   0.5794   0.957
V42     V     0.293   0.6706   0.8439
V43     V     0.043   0.5939   0.4206
V44     V     0.1561   0.707   0.3294
V45     V     0.1706   0.6561   0.707
V46     V     0.0794   0.543   0.5939
V47     V     0.8294   0.6561   0.207
V48     V     0.9206   0.543   0.0939
V49     V     0.5794   0.957   0.4061
V50     V     0.6706   0.8439   0.293
V51     V     0.3439   0.293   0.8294
V52     V     0.457   0.4061   0.9206
V53     V     0.707   0.3294   0.1561
V54     V     0.5939   0.4206   0.043
V55     V     0.6561   0.707   0.1706
V56     V     0.543   0.5939   0.0794
V57     V     0.6561   0.207   0.8294
V58     V     0.543   0.0939   0.9206
V59     V     0.3439   0.207   0.3294
V60     V     0.457   0.0939   0.4206
V61     V     0.9061   0.4206   0.957
V62     V     0.793   0.3294   0.8439
V63     V     0.957   0.4061   0.5794
V64     V     0.8439   0.293   0.6706
V65     V     0.4206   0.043   0.5939
V66     V     0.3294   0.1561   0.707
V67     V     0.5939   0.0794   0.543
V68     V     0.707   0.1706   0.6561
V69     V     0.0794   0.043   0.4061
V70     V     0.1706   0.1561   0.293
V71     V     0.8439   0.207   0.1706
V72     V     0.957   0.0939   0.0794
V73     V     0.1706   0.3439   0.793
V74     V     0.0794   0.457   0.9061
V75     V     0.543   0.4061   0.4206
V76     V     0.6561   0.293   0.3294
V77     V     0.9061   0.0794   0.457
V78     V     0.793   0.1706   0.3439
V79     V     0.043   0.0939   0.5794
V80     V     0.1561   0.207   0.6706
V81     V     0.957   0.9061   0.4206
V82     V     0.8439   0.793   0.3294
V83     V     0.793   0.6706   0.6561
V84     V     0.9061   0.5794   0.543
V85     V     0.5794   0.543   0.9061
V86     V     0.6706   0.6561   0.793
V87     V     0.543   0.9061   0.5794
V88     V     0.6561   0.793   0.6706
V89     V     0.3439   0.793   0.1706
V90     V     0.457   0.9061   0.0794
V91     V     0.707   0.8294   0.8439
V92     V     0.5939   0.9206   0.957
V93     V     0.8294   0.8439   0.707
V94     V     0.9206   0.957   0.5939
V95     V     0.8439   0.707   0.8294
V96     V     0.957   0.5939   0.9206
loop_
_geom_bond_atom_site_label_1
_geom_bond_atom_site_label_2
_geom_bond_distance
_geom_bond_site_symmetry_2
_ccdc_geom_bond_type
V1     V68    10.0   .     S
V1     V64    10.0   .     S
V1     V2    10.0   .     S
V1     V57    10.0   .     S
V1     V62    10.0   .     S
V2     V6    10.0   1_546     S
V2     V4    10.0   1_645     S
V2     V72    10.0   1_556     S
V2     V30    10.0   1_655     S
V3     V45    10.0   .     S
V3     V42    10.0   .     S
V3     V4    10.0   .     S
V3     V37    10.0   .     S
V3     V40    10.0   .     S
V4     V6    10.0   1_456     S
V4     V2    10.0   1_465     S
V4     V30    10.0   1_565     S
V4     V11    10.0   1_556     S
V5     V55    10.0   .     S
V5     V50    10.0   .     S
V5     V6    10.0   .     S
V5     V82    10.0   .     S
V5     V47    10.0   .     S
V6     V4    10.0   1_654     S
V6     V2    10.0   1_564     S
V6     V11    10.0   1_655     S
V6     V72    10.0   1_565     S
V7     V70    10.0   .     S
V7     V35    10.0   .     S
V7     V33    10.0   .     S
V7     V59    10.0   .     S
V7     V8    10.0   .     S
V8     V58    10.0   1_554     S
V8     V39    10.0   1_544     S
V8     V13    10.0   .     S
V8     V90    10.0   1_545     S
V9     V31    10.0   .     S
V9     V75    10.0   .     S
V9     V10    10.0   .     S
V9     V25    10.0   .     S
V9     V28    10.0   .     S
V10     V89    10.0   .     S
V10     V16    10.0   .     S
V10     V21    10.0   .     S
V10     V44    10.0   .     S
V11     V30    10.0   1_564     S
V11     V72    10.0   1_465     S
V11     V4    10.0   1_554     S
V11     V6    10.0   1_455     S
V11     V12    10.0   .     S
V12     V44    10.0   .     S
V12     V21    10.0   .     S
V12     V89    10.0   .     S
V12     V16    10.0   .     S
V13     V92    10.0   1_544     S
V13     V90    10.0   1_545     S
V13     V14    10.0   .     S
V13     V58    10.0   1_554     S
V14     V76    10.0   .     S
V14     V78    10.0   .     S
V14     V71    10.0   .     S
V14     V53    10.0   .     S
V15     V96    10.0   1_454     S
V15     V74    10.0   1_554     S
V15     V16    10.0   .     S
V15     V48    10.0   1_455     S
V15     V36    10.0   .     S
V16     V89    10.0   .     S
V16     V44    10.0   .     S
V17     V63    10.0   1_455     S
V17     V46    10.0   .     S
V17     V18    10.0   .     S
V17     V43    10.0   .     S
V17     V20    10.0   1_455     S
V18     V33    10.0   .     S
V18     V59    10.0   .     S
V18     V70    10.0   .     S
V18     V35    10.0   .     S
V19     V71    10.0   .     S
V19     V53    10.0   .     S
V19     V20    10.0   .     S
V19     V78    10.0   .     S
V19     V76    10.0   .     S
V20     V43    10.0   1_655     S
V20     V84    10.0   .     S
V20     V17    10.0   1_655     S
V20     V63    10.0   .     S
V21     V44    10.0   .     S
V21     V89    10.0   .     S
V21     V22    10.0   .     S
V22     V65    10.0   1_565     S
V22     V87    10.0   .     S
V22     V60    10.0   1_565     S
V22     V49    10.0   .     S
V23     V57    10.0   .     S
V23     V62    10.0   .     S
V23     V24    10.0   .     S
V23     V68    10.0   .     S
V23     V64    10.0   .     S
V24     V25    10.0   .     S
V24     V28    10.0   .     S
V24     V31    10.0   .     S
V24     V75    10.0   .     S
V25     V28    10.0   .     S
V25     V26    10.0   .     S
V25     V75    10.0   .     S
V26     V82    10.0   .     S
V26     V47    10.0   .     S
V26     V50    10.0   .     S
V26     V55    10.0   .     S
V27     V40    10.0   .     S
V27     V37    10.0   .     S
V27     V28    10.0   .     S
V27     V45    10.0   .     S
V27     V42    10.0   .     S
V28     V31    10.0   .     S
V29     V66    10.0   .     S
V29     V51    10.0   .     S
V29     V30    10.0   .     S
V29     V73    10.0   .     S
V29     V80    10.0   .     S
V30     V72    10.0   1_456     S
V30     V11    10.0   1_546     S
V30     V4    10.0   1_545     S
V30     V2    10.0   1_455     S
V31     V75    10.0   .     S
V31     V32    10.0   .     S
V32     V80    10.0   .     S
V32     V73    10.0   .     S
V32     V66    10.0   .     S
V32     V51    10.0   .     S
V33     V59    10.0   .     S
V33     V35    10.0   .     S
V33     V34    10.0   .     S
V34     V41    10.0   1_554     S
V34     V56    10.0   .     S
V34     V54    10.0   .     S
V34     V52    10.0   1_554     S
V35     V70    10.0   .     S
V35     V36    10.0   .     S
V36     V48    10.0   1_455     S
V36     V61    10.0   1_454     S
V36     V74    10.0   1_554     S
V37     V40    10.0   .     S
V37     V38    10.0   .     S
V37     V45    10.0   .     S
V38     V69    10.0   1_565     S
V38     V81    10.0   1_455     S
V38     V79    10.0   1_565     S
V38     V94    10.0   1_455     S
V39     V8    10.0   1_566     S
V39     V58    10.0   1_565     S
V39     V40    10.0   .     S
V39     V92    10.0   .     S
V39     V90    10.0   1_556     S
V40     V42    10.0   .     S
V41     V56    10.0   1_556     S
V41     V34    10.0   1_556     S
V41     V42    10.0   .     S
V41     V85    10.0   .     S
V41     V52    10.0   .     S
V42     V45    10.0   .     S
V43     V20    10.0   1_455     S
V43     V84    10.0   1_455     S
V43     V44    10.0   .     S
V43     V46    10.0   .     S
V45     V46    10.0   .     S
V46     V63    10.0   1_455     S
V46     V84    10.0   1_455     S
V47     V82    10.0   .     S
V47     V48    10.0   .     S
V47     V55    10.0   .     S
V48     V36    10.0   1_655     S
V48     V61    10.0   1_554     S
V48     V15    10.0   1_655     S
V48     V96    10.0   1_554     S
V49     V67    10.0   1_565     S
V49     V60    10.0   1_565     S
V49     V50    10.0   .     S
V49     V87    10.0   .     S
V50     V55    10.0   .     S
V50     V82    10.0   .     S
V51     V66    10.0   .     S
V51     V73    10.0   .     S
V51     V52    10.0   .     S
V52     V54    10.0   1_556     S
V52     V85    10.0   .     S
V52     V34    10.0   1_556     S
V53     V71    10.0   .     S
V53     V54    10.0   .     S
V53     V76    10.0   .     S
V54     V52    10.0   1_554     S
V54     V85    10.0   1_554     S
V54     V56    10.0   .     S
V55     V56    10.0   .     S
V56     V41    10.0   1_554     S
V56     V85    10.0   1_554     S
V57     V62    10.0   .     S
V57     V58    10.0   .     S
V57     V68    10.0   .     S
V58     V8    10.0   1_556     S
V58     V39    10.0   1_545     S
V58     V13    10.0   1_556     S
V58     V92    10.0   1_545     S
V59     V70    10.0   .     S
V59     V60    10.0   .     S
V60     V49    10.0   1_545     S
V60     V67    10.0   .     S
V60     V65    10.0   .     S
V60     V22    10.0   1_545     S
V61     V36    10.0   1_656     S
V61     V48    10.0   1_556     S
V61     V62    10.0   .     S
V61     V96    10.0   .     S
V61     V74    10.0   1_655     S
V62     V64    10.0   .     S
V63     V46    10.0   1_655     S
V63     V17    10.0   1_655     S
V63     V84    10.0   .     S
V63     V64    10.0   .     S
V64     V68    10.0   .     S
V65     V22    10.0   1_545     S
V65     V87    10.0   1_545     S
V65     V66    10.0   .     S
V65     V67    10.0   .     S
V66     V80    10.0   .     S
V67     V49    10.0   1_545     S
V67     V87    10.0   1_545     S
V67     V68    10.0   .     S
V69     V38    10.0   1_545     S
V69     V81    10.0   1_445     S
V69     V70    10.0   .     S
V69     V79    10.0   .     S
V69     V77    10.0   1_455     S
V71     V72    10.0   .     S
V71     V78    10.0   .     S
V72     V30    10.0   1_654     S
V72     V11    10.0   1_645     S
V72     V6    10.0   1_545     S
V72     V2    10.0   1_554     S
V73     V80    10.0   .     S
V73     V74    10.0   .     S
V74     V96    10.0   1_455     S
V74     V15    10.0   1_556     S
V74     V61    10.0   1_455     S
V74     V36    10.0   1_556     S
V75     V76    10.0   .     S
V76     V78    10.0   .     S
V77     V94    10.0   1_545     S
V77     V79    10.0   1_655     S
V77     V78    10.0   .     S
V77     V81    10.0   1_545     S
V77     V69    10.0   1_655     S
V79     V94    10.0   1_445     S
V79     V77    10.0   1_455     S
V79     V80    10.0   .     S
V79     V38    10.0   1_545     S
V81     V69    10.0   1_665     S
V81     V38    10.0   1_655     S
V81     V82    10.0   .     S
V81     V94    10.0   .     S
V81     V77    10.0   1_565     S
V83     V86    10.0   .     S
V83     V88    10.0   .     S
V83     V84    10.0   .     S
V83     V95    10.0   .     S
V83     V93    10.0   .     S
V84     V43    10.0   1_655     S
V84     V46    10.0   1_655     S
V85     V54    10.0   1_556     S
V85     V56    10.0   1_556     S
V85     V86    10.0   .     S
V86     V88    10.0   .     S
V86     V91    10.0   .     S
V86     V95    10.0   .     S
V87     V65    10.0   1_565     S
V87     V67    10.0   1_565     S
V87     V88    10.0   .     S
V88     V91    10.0   .     S
V88     V93    10.0   .     S
V89     V90    10.0   .     S
V90     V92    10.0   1_554     S
V90     V13    10.0   1_565     S
V90     V39    10.0   1_554     S
V90     V8    10.0   1_565     S
V91     V93    10.0   .     S
V91     V95    10.0   .     S
V91     V92    10.0   .     S
V92     V90    10.0   1_556     S
V92     V13    10.0   1_566     S
V92     V58    10.0   1_565     S
V93     V95    10.0   .     S
V93     V94    10.0   .     S
V94     V77    10.0   1_565     S
V94     V79    10.0   1_665     S
V94     V38    10.0   1_655     S
V95     V96    10.0   .     S
V96     V74    10.0   1_655     S
V96     V15    10.0   1_656     S
V96     V48    10.0   1_556     S
