data_bcul
_audit_creation_date              2020-02-04
_audit_creation_method            'Pymatgen'
_symmetry_space_group_name_H-M    'P1'
_symmetry_Int_Tables_number       1
loop_
_symmetry_equiv_pos_as_xyz
  x,y,z
_cell_length_a                    39.8313
_cell_length_b                    39.8313
_cell_length_c                    39.8313
_cell_angle_alpha                 90.0
_cell_angle_beta                 90.0
_cell_angle_gamma                 90.0
loop_
_atom_site_label
_atom_site_type_symbol
_atom_site_fract_x
_atom_site_fract_y
_atom_site_fract_z
V1     V     0.6775   0.5   0.855
V2     V     0.855   0.5   0.6775
V3     V     0.5   0.855   0.6775
V4     V     0.5   0.6775   0.855
V5     V     0.855   0.6775   0.5
V6     V     0.6775   0.855   0.5
V7     V     0.645   0.8225   0.0
V8     V     0.8225   0.645   0.0
V9     V     0.8225   0.0   0.645
V10     V     0.645   0.0   0.8225
V11     V     0.0   0.8225   0.645
V12     V     0.0   0.645   0.8225
V13     V     0.5   0.855   0.3225
V14     V     0.5   0.6775   0.145
V15     V     0.5   0.3225   0.855
V16     V     0.5   0.145   0.6775
V17     V     0.3225   0.5   0.855
V18     V     0.145   0.5   0.6775
V19     V     0.855   0.5   0.3225
V20     V     0.6775   0.5   0.145
V21     V     0.3225   0.855   0.5
V22     V     0.145   0.6775   0.5
V23     V     0.855   0.3225   0.5
V24     V     0.6775   0.145   0.5
V25     V     0.645   0.1775   0.0
V26     V     0.8225   0.355   0.0
V27     V     0.1775   0.645   0.0
V28     V     0.355   0.8225   0.0
V29     V     0.0   0.645   0.1775
V30     V     0.0   0.8225   0.355
V31     V     0.645   0.0   0.1775
V32     V     0.8225   0.0   0.355
V33     V     0.0   0.1775   0.645
V34     V     0.0   0.355   0.8225
V35     V     0.1775   0.0   0.645
V36     V     0.355   0.0   0.8225
V37     V     0.3225   0.5   0.145
V38     V     0.145   0.5   0.3225
V39     V     0.355   0.1775   0.0
V40     V     0.1775   0.355   0.0
V41     V     0.5   0.145   0.3225
V42     V     0.5   0.3225   0.145
V43     V     0.1775   0.0   0.355
V44     V     0.355   0.0   0.1775
V45     V     0.0   0.1775   0.355
V46     V     0.0   0.355   0.1775
V47     V     0.145   0.3225   0.5
V48     V     0.3225   0.145   0.5
loop_
_geom_bond_atom_site_label_1
_geom_bond_atom_site_label_2
_geom_bond_distance
_geom_bond_site_symmetry_2
_ccdc_geom_bond_type
V1     V2    10.0   .     S
V1     V26    10.0   1_556     S
V1     V8    10.0   1_556     S
V1     V4    10.0   .     S
V1     V15    10.0   .     S
V2     V12    10.0   1_655     S
V2     V34    10.0   1_655     S
V2     V5    10.0   .     S
V2     V23    10.0   .     S
V3     V4    10.0   .     S
V3     V36    10.0   1_565     S
V3     V10    10.0   1_565     S
V3     V21    10.0   .     S
V3     V6    10.0   .     S
V4     V7    10.0   1_556     S
V4     V28    10.0   1_556     S
V4     V17    10.0   .     S
V5     V6    10.0   .     S
V5     V30    10.0   1_655     S
V5     V11    10.0   1_655     S
V5     V19    10.0   .     S
V6     V9    10.0   1_565     S
V6     V32    10.0   1_565     S
V6     V13    10.0   .     S
V7     V4    10.0   1_554     S
V7     V8    10.0   .     S
V7     V14    10.0   .     S
V7     V31    10.0   1_565     S
V7     V10    10.0   1_564     S
V8     V1    10.0   1_554     S
V8     V20    10.0   .     S
V8     V29    10.0   1_655     S
V8     V12    10.0   1_654     S
V9     V6    10.0   1_545     S
V9     V10    10.0   .     S
V9     V24    10.0   .     S
V9     V33    10.0   1_655     S
V9     V11    10.0   1_645     S
V10     V3    10.0   1_545     S
V10     V16    10.0   .     S
V10     V25    10.0   1_556     S
V10     V7    10.0   1_546     S
V11     V5    10.0   1_455     S
V11     V12    10.0   .     S
V11     V22    10.0   .     S
V11     V35    10.0   1_565     S
V11     V9    10.0   1_465     S
V12     V2    10.0   1_455     S
V12     V18    10.0   .     S
V12     V27    10.0   1_556     S
V12     V8    10.0   1_456     S
V13     V14    10.0   .     S
V13     V31    10.0   1_565     S
V13     V44    10.0   1_565     S
V13     V21    10.0   .     S
V14     V28    10.0   .     S
V14     V20    10.0   .     S
V14     V37    10.0   .     S
V15     V16    10.0   .     S
V15     V39    10.0   1_556     S
V15     V25    10.0   1_556     S
V15     V17    10.0   .     S
V16     V36    10.0   .     S
V16     V24    10.0   .     S
V16     V48    10.0   .     S
V17     V18    10.0   .     S
V17     V27    10.0   1_556     S
V17     V40    10.0   1_556     S
V18     V34    10.0   .     S
V18     V47    10.0   .     S
V18     V22    10.0   .     S
V19     V20    10.0   .     S
V19     V46    10.0   1_655     S
V19     V29    10.0   1_655     S
V19     V23    10.0   .     S
V20     V26    10.0   .     S
V20     V42    10.0   .     S
V21     V22    10.0   .     S
V21     V43    10.0   1_565     S
V21     V35    10.0   1_565     S
V22     V30    10.0   .     S
V22     V38    10.0   .     S
V23     V24    10.0   .     S
V23     V33    10.0   1_655     S
V23     V45    10.0   1_655     S
V24     V32    10.0   .     S
V24     V41    10.0   .     S
V25     V15    10.0   1_554     S
V25     V26    10.0   .     S
V25     V42    10.0   .     S
V25     V10    10.0   1_554     S
V25     V31    10.0   .     S
V26     V1    10.0   1_554     S
V26     V46    10.0   1_655     S
V26     V34    10.0   1_654     S
V27     V17    10.0   1_554     S
V27     V28    10.0   .     S
V27     V37    10.0   .     S
V27     V12    10.0   1_554     S
V27     V29    10.0   .     S
V28     V4    10.0   1_554     S
V28     V44    10.0   1_565     S
V28     V36    10.0   1_564     S
V29     V19    10.0   1_455     S
V29     V30    10.0   .     S
V29     V38    10.0   .     S
V29     V8    10.0   1_455     S
V30     V5    10.0   1_455     S
V30     V43    10.0   1_565     S
V30     V32    10.0   1_465     S
V31     V13    10.0   1_545     S
V31     V32    10.0   .     S
V31     V41    10.0   .     S
V31     V7    10.0   1_545     S
V32     V6    10.0   1_545     S
V32     V45    10.0   1_655     S
V32     V30    10.0   1_645     S
V33     V23    10.0   1_455     S
V33     V34    10.0   .     S
V33     V47    10.0   .     S
V33     V9    10.0   1_455     S
V33     V35    10.0   .     S
V34     V2    10.0   1_455     S
V34     V40    10.0   1_556     S
V34     V26    10.0   1_456     S
V35     V21    10.0   1_545     S
V35     V36    10.0   .     S
V35     V48    10.0   .     S
V35     V11    10.0   1_545     S
V36     V3    10.0   1_545     S
V36     V39    10.0   1_556     S
V36     V28    10.0   1_546     S
V37     V38    10.0   .     S
V37     V40    10.0   .     S
V37     V42    10.0   .     S
V38     V46    10.0   .     S
V38     V47    10.0   .     S
V39     V15    10.0   1_554     S
V39     V40    10.0   .     S
V39     V42    10.0   .     S
V39     V36    10.0   1_554     S
V39     V44    10.0   .     S
V40     V17    10.0   1_554     S
V40     V34    10.0   1_554     S
V40     V46    10.0   .     S
V41     V42    10.0   .     S
V41     V44    10.0   .     S
V41     V48    10.0   .     S
V43     V21    10.0   1_545     S
V43     V44    10.0   .     S
V43     V48    10.0   .     S
V43     V30    10.0   1_545     S
V43     V45    10.0   .     S
V44     V13    10.0   1_545     S
V44     V28    10.0   1_545     S
V45     V23    10.0   1_455     S
V45     V46    10.0   .     S
V45     V47    10.0   .     S
V45     V32    10.0   1_455     S
V46     V19    10.0   1_455     S
V46     V26    10.0   1_455     S
V47     V48    10.0   .     S
