data_bcw
_audit_creation_date              2020-02-04
_audit_creation_method            'Pymatgen'
_symmetry_space_group_name_H-M    'P1'
_symmetry_Int_Tables_number       1
loop_
_symmetry_equiv_pos_as_xyz
  x,y,z
_cell_length_a                    46.9109
_cell_length_b                    46.9109
_cell_length_c                    46.9109
_cell_angle_alpha                 90.0
_cell_angle_beta                 90.0
_cell_angle_gamma                 90.0
loop_
_atom_site_label
_atom_site_type_symbol
_atom_site_fract_x
_atom_site_fract_y
_atom_site_fract_z
V1     V     0.1758   0.0926   0.5064
Er2     Er     0.3334   0.0393   0.373
V3     V     0.5064   0.3242   0.5926
Er4     Er     0.373   0.1666   0.5393
V5     V     0.8242   0.9074   0.4936
Er6     Er     0.6666   0.9607   0.627
V7     V     0.5926   0.9936   0.8242
Er8     Er     0.5393   0.127   0.6666
V9     V     0.4936   0.6759   0.4074
Er10     Er     0.627   0.8334   0.4607
V11     V     0.4074   0.0064   0.1758
Er12     Er     0.4607   0.873   0.3334
V13     V     0.5064   0.1758   0.0926
Er14     Er     0.373   0.3334   0.0393
V15     V     0.5926   0.5064   0.3242
Er16     Er     0.5393   0.373   0.1666
V17     V     0.4936   0.8242   0.9074
Er18     Er     0.627   0.6666   0.9607
V19     V     0.8242   0.5926   0.9936
Er20     Er     0.6666   0.5393   0.127
V21     V     0.4074   0.4936   0.6759
Er22     Er     0.4607   0.627   0.8334
V23     V     0.1758   0.4074   0.0064
Er24     Er     0.3334   0.4607   0.873
V25     V     0.0926   0.5064   0.1758
Er26     Er     0.0393   0.373   0.3334
V27     V     0.3242   0.5926   0.5064
Er28     Er     0.1666   0.5393   0.373
V29     V     0.9074   0.4936   0.8242
Er30     Er     0.9607   0.627   0.6666
V31     V     0.9936   0.8242   0.5926
Er32     Er     0.127   0.6666   0.5393
V33     V     0.0064   0.1758   0.4074
Er34     Er     0.873   0.3334   0.4607
V35     V     0.6759   0.4074   0.4936
Er36     Er     0.8334   0.4607   0.627
V37     V     0.0064   0.3242   0.9074
Er38     Er     0.873   0.1666   0.9607
V39     V     0.6758   0.0926   0.9936
Er40     Er     0.8334   0.0393   0.127
V41     V     0.3242   0.9074   0.0064
Er42     Er     0.1666   0.9607   0.873
V43     V     0.0926   0.9936   0.6758
Er44     Er     0.0393   0.127   0.8334
V45     V     0.9074   0.0064   0.3242
Er46     Er     0.9607   0.873   0.1666
V47     V     0.9936   0.6758   0.0926
Er48     Er     0.127   0.8334   0.0393
loop_
_geom_bond_atom_site_label_1
_geom_bond_atom_site_label_2
_geom_bond_distance
_geom_bond_site_symmetry_2
_ccdc_geom_bond_type
V1     Er2    10.0   .     S
V1     Er4    10.0   .     S
V1     V33    10.0   .     S
V1     V43    10.0   1_545     S
Er2     Er4    10.0   .     S
Er2     Er12    10.0   1_545     S
Er2     V11    10.0   .     S
V3     Er4    10.0   .     S
V3     Er8    10.0   .     S
V3     V21    10.0   .     S
V3     V35    10.0   .     S
Er4     Er8    10.0   .     S
V5     Er6    10.0   .     S
V5     Er10    10.0   .     S
V5     V31    10.0   .     S
V5     V45    10.0   1_565     S
Er6     Er10    10.0   .     S
Er6     Er8    10.0   1_565     S
Er6     V7    10.0   .     S
V7     Er8    10.0   1_565     S
V7     V39    10.0   1_565     S
V7     V17    10.0   .     S
Er8     V7    10.0   1_545     S
Er8     Er6    10.0   1_545     S
V9     Er10    10.0   .     S
V9     Er12    10.0   .     S
V9     V15    10.0   .     S
V9     V27    10.0   .     S
Er10     Er12    10.0   .     S
V11     Er12    10.0   1_545     S
V11     V41    10.0   1_545     S
V11     V13    10.0   .     S
Er12     V11    10.0   1_565     S
Er12     Er2    10.0   1_565     S
V13     Er14    10.0   .     S
V13     Er16    10.0   .     S
V13     V39    10.0   1_554     S
Er14     Er16    10.0   .     S
Er14     Er24    10.0   1_554     S
Er14     V23    10.0   .     S
V15     Er16    10.0   .     S
V15     Er20    10.0   .     S
V15     V35    10.0   .     S
Er16     Er20    10.0   .     S
V17     Er18    10.0   .     S
V17     Er22    10.0   .     S
V17     V41    10.0   1_556     S
Er18     Er22    10.0   .     S
Er18     Er20    10.0   1_556     S
Er18     V19    10.0   .     S
V19     Er20    10.0   1_556     S
V19     V47    10.0   1_556     S
V19     V29    10.0   .     S
Er20     V19    10.0   1_554     S
Er20     Er18    10.0   1_554     S
V21     Er22    10.0   .     S
V21     Er24    10.0   .     S
V21     V27    10.0   .     S
Er22     Er24    10.0   .     S
V23     Er24    10.0   1_554     S
V23     V37    10.0   1_554     S
V23     V25    10.0   .     S
Er24     V23    10.0   1_556     S
Er24     Er14    10.0   1_556     S
V25     Er26    10.0   .     S
V25     Er28    10.0   .     S
V25     V47    10.0   1_455     S
Er26     Er28    10.0   .     S
Er26     Er34    10.0   1_455     S
Er26     V33    10.0   .     S
V27     Er28    10.0   .     S
V27     Er32    10.0   .     S
Er28     Er32    10.0   .     S
V29     Er30    10.0   .     S
V29     Er36    10.0   .     S
V29     V37    10.0   1_655     S
Er30     Er36    10.0   .     S
Er30     Er32    10.0   1_655     S
Er30     V31    10.0   .     S
V31     Er32    10.0   1_655     S
V31     V43    10.0   1_655     S
Er32     V31    10.0   1_455     S
Er32     Er30    10.0   1_455     S
V33     Er34    10.0   1_455     S
V33     V45    10.0   1_455     S
Er34     V33    10.0   1_655     S
Er34     Er26    10.0   1_655     S
Er34     Er36    10.0   .     S
Er34     V35    10.0   .     S
V35     Er36    10.0   .     S
V37     V23    10.0   1_556     S
V37     Er38    10.0   1_455     S
V37     Er44    10.0   .     S
V37     V29    10.0   1_455     S
Er38     V37    10.0   1_655     S
Er38     Er44    10.0   1_655     S
Er38     Er40    10.0   1_556     S
Er38     V39    10.0   .     S
V39     V7    10.0   1_545     S
V39     Er40    10.0   1_556     S
V39     V13    10.0   1_556     S
Er40     V39    10.0   1_554     S
Er40     Er38    10.0   1_554     S
Er40     Er46    10.0   1_545     S
Er40     V45    10.0   .     S
V41     V11    10.0   1_565     S
V41     Er42    10.0   1_554     S
V41     Er48    10.0   .     S
V41     V17    10.0   1_554     S
Er42     V41    10.0   1_556     S
Er42     Er48    10.0   1_556     S
Er42     Er44    10.0   1_565     S
Er42     V43    10.0   .     S
V43     V31    10.0   1_455     S
V43     Er44    10.0   1_565     S
V43     V1    10.0   1_565     S
Er44     Er38    10.0   1_455     S
Er44     V43    10.0   1_545     S
Er44     Er42    10.0   1_545     S
V45     V33    10.0   1_655     S
V45     Er46    10.0   1_545     S
V45     V5    10.0   1_545     S
Er46     V45    10.0   1_565     S
Er46     Er40    10.0   1_565     S
Er46     Er48    10.0   1_655     S
Er46     V47    10.0   .     S
V47     V19    10.0   1_554     S
V47     Er48    10.0   1_655     S
V47     V25    10.0   1_655     S
Er48     Er42    10.0   1_554     S
Er48     V47    10.0   1_455     S
Er48     Er46    10.0   1_455     S
