data_beb
_audit_creation_date              2020-02-04
_audit_creation_method            'Pymatgen'
_symmetry_space_group_name_H-M    'P1'
_symmetry_Int_Tables_number       1
loop_
_symmetry_equiv_pos_as_xyz
  x,y,z
_cell_length_a                    26.1802
_cell_length_b                    26.1802
_cell_length_c                    73.3715
_cell_angle_alpha                 90.0
_cell_angle_beta                 90.0
_cell_angle_gamma                 120.0
loop_
_atom_site_label
_atom_site_type_symbol
_atom_site_fract_x
_atom_site_fract_y
_atom_site_fract_z
V1     V     0.9213   0.4607   0.4363
V2     V     0.0787   0.5393   0.5637
V3     V     0.5393   0.0787   0.4363
V4     V     0.4607   0.9213   0.5637
V5     V     0.5393   0.4607   0.4363
V6     V     0.4607   0.5393   0.5637
Er7     Er     0.9213   0.4607   0.691
Er8     Er     0.5393   0.0787   0.691
Er9     Er     0.5393   0.4607   0.691
Er10     Er     0.1273   0.8727   0.6424
Er11     Er     0.1273   0.2546   0.6424
Er12     Er     0.7454   0.8727   0.6424
Er13     Er     0.794   0.206   0.9757
Er14     Er     0.206   0.794   0.0243
Er15     Er     0.794   0.588   0.9757
Er16     Er     0.588   0.794   0.0243
Er17     Er     0.412   0.206   0.9757
Er18     Er     0.206   0.412   0.0243
V19     V     0.206   0.794   0.7697
V20     V     0.1273   0.8727   0.897
V21     V     0.588   0.794   0.7697
V22     V     0.7454   0.8727   0.897
V23     V     0.206   0.412   0.7697
V24     V     0.1273   0.2546   0.897
V25     V     0.794   0.588   0.2303
V26     V     0.8727   0.7454   0.103
V27     V     0.412   0.206   0.2303
V28     V     0.2546   0.1273   0.103
V29     V     0.8727   0.1273   0.103
V30     V     0.794   0.206   0.2303
Er31     Er     0.4607   0.9213   0.309
Er32     Er     0.0787   0.5393   0.309
Er33     Er     0.4607   0.5393   0.309
Er34     Er     0.8727   0.1273   0.3577
Er35     Er     0.2546   0.1273   0.3577
Er36     Er     0.8727   0.7454   0.3577
loop_
_geom_bond_atom_site_label_1
_geom_bond_atom_site_label_2
_geom_bond_distance
_geom_bond_site_symmetry_2
_ccdc_geom_bond_type
V1     V2    10.0   1_655     S
V1     V3    10.0   .     S
V1     V5    10.0   .     S
V1     Er32    10.0   1_655     S
V1     Er34    10.0   .     S
V1     Er36    10.0   .     S
V2     V1    10.0   1_455     S
V2     V6    10.0   .     S
V2     V4    10.0   .     S
V2     Er7    10.0   1_455     S
V2     Er11    10.0   .     S
V2     Er10    10.0   .     S
V3     V4    10.0   1_545     S
V3     V5    10.0   .     S
V3     Er31    10.0   1_545     S
V3     Er35    10.0   .     S
V3     Er34    10.0   .     S
V4     V3    10.0   1_565     S
V4     V6    10.0   .     S
V4     Er8    10.0   1_565     S
V4     Er10    10.0   .     S
V4     Er12    10.0   .     S
V5     V6    10.0   .     S
V5     Er33    10.0   .     S
V5     Er36    10.0   .     S
V5     Er35    10.0   .     S
V6     Er9    10.0   .     S
V6     Er12    10.0   .     S
V6     Er11    10.0   .     S
Er7     Er11    10.0   1_655     S
Er7     V2    10.0   1_655     S
Er7     Er10    10.0   1_655     S
Er7     V19    10.0   1_655     S
Er7     V23    10.0   1_655     S
Er7     Er9    10.0   .     S
Er7     Er8    10.0   .     S
Er8     Er12    10.0   1_545     S
Er8     V4    10.0   1_545     S
Er8     Er10    10.0   1_545     S
Er8     V19    10.0   1_545     S
Er8     V21    10.0   1_545     S
Er8     Er9    10.0   .     S
Er9     Er11    10.0   .     S
Er9     Er12    10.0   .     S
Er9     V21    10.0   .     S
Er9     V23    10.0   .     S
Er10     Er8    10.0   1_565     S
Er10     V19    10.0   .     S
Er10     Er7    10.0   1_455     S
Er10     Er11    10.0   1_565     S
Er10     Er12    10.0   1_455     S
Er11     V23    10.0   .     S
Er11     Er7    10.0   1_455     S
Er11     Er10    10.0   1_545     S
Er11     Er12    10.0   1_445     S
Er12     Er8    10.0   1_565     S
Er12     V21    10.0   .     S
Er12     Er11    10.0   1_665     S
Er12     Er10    10.0   1_655     S
Er13     Er16    10.0   1_546     S
Er13     V29    10.0   1_556     S
Er13     Er18    10.0   1_656     S
Er13     V24    10.0   1_655     S
Er13     V22    10.0   1_545     S
Er13     Er17    10.0   .     S
Er13     Er15    10.0   .     S
Er14     Er16    10.0   .     S
Er14     Er17    10.0   1_564     S
Er14     V20    10.0   1_554     S
Er14     Er15    10.0   1_454     S
Er14     V28    10.0   1_565     S
Er14     V26    10.0   1_455     S
Er14     Er18    10.0   .     S
Er15     Er16    10.0   1_556     S
Er15     Er14    10.0   1_656     S
Er15     V26    10.0   1_556     S
Er15     V20    10.0   1_655     S
Er15     V22    10.0   .     S
Er15     Er17    10.0   .     S
Er16     Er18    10.0   .     S
Er16     Er15    10.0   1_554     S
Er16     Er13    10.0   1_564     S
Er16     V22    10.0   1_554     S
Er16     V29    10.0   1_565     S
Er16     V26    10.0   .     S
Er17     Er14    10.0   1_546     S
Er17     V28    10.0   1_556     S
Er17     Er18    10.0   1_556     S
Er17     V20    10.0   1_545     S
Er17     V24    10.0   .     S
Er18     V24    10.0   1_554     S
Er18     Er17    10.0   1_554     S
Er18     Er13    10.0   1_454     S
Er18     V29    10.0   1_455     S
Er18     V28    10.0   .     S
V19     Er8    10.0   1_565     S
V19     Er7    10.0   1_455     S
V19     V20    10.0   .     S
V19     V23    10.0   .     S
V19     V21    10.0   .     S
V20     Er14    10.0   1_556     S
V20     Er15    10.0   1_455     S
V20     Er17    10.0   1_565     S
V20     V24    10.0   1_565     S
V20     V22    10.0   1_455     S
V21     Er8    10.0   1_565     S
V21     V23    10.0   .     S
V21     V22    10.0   .     S
V22     Er16    10.0   1_556     S
V22     Er13    10.0   1_565     S
V22     V24    10.0   1_665     S
V22     V20    10.0   1_655     S
V23     Er7    10.0   1_455     S
V23     V24    10.0   .     S
V24     Er18    10.0   1_556     S
V24     Er13    10.0   1_455     S
V24     V20    10.0   1_545     S
V24     V22    10.0   1_445     S
V25     V26    10.0   .     S
V25     V30    10.0   .     S
V25     V27    10.0   .     S
V25     Er36    10.0   .     S
V25     Er33    10.0   .     S
V25     Er32    10.0   1_655     S
V26     Er15    10.0   1_554     S
V26     Er14    10.0   1_655     S
V26     V29    10.0   1_565     S
V26     V28    10.0   1_665     S
V27     V28    10.0   .     S
V27     V30    10.0   .     S
V27     Er35    10.0   .     S
V27     Er31    10.0   1_545     S
V27     Er33    10.0   .     S
V28     Er17    10.0   1_554     S
V28     Er14    10.0   1_545     S
V28     V26    10.0   1_445     S
V28     V29    10.0   1_455     S
V29     Er13    10.0   1_554     S
V29     Er18    10.0   1_655     S
V29     Er16    10.0   1_545     S
V29     V26    10.0   1_545     S
V29     V28    10.0   1_655     S
V29     V30    10.0   .     S
V30     Er34    10.0   .     S
V30     Er31    10.0   1_545     S
V30     Er32    10.0   1_655     S
Er31     Er35    10.0   1_565     S
Er31     V3    10.0   1_565     S
Er31     Er34    10.0   1_565     S
Er31     V30    10.0   1_565     S
Er31     V27    10.0   1_565     S
Er31     Er33    10.0   .     S
Er31     Er32    10.0   .     S
Er32     Er36    10.0   1_455     S
Er32     V1    10.0   1_455     S
Er32     Er34    10.0   1_455     S
Er32     V30    10.0   1_455     S
Er32     V25    10.0   1_455     S
Er32     Er33    10.0   .     S
Er33     Er35    10.0   .     S
Er33     Er36    10.0   .     S
Er34     Er31    10.0   1_545     S
Er34     Er32    10.0   1_655     S
Er34     Er36    10.0   1_545     S
Er34     Er35    10.0   1_655     S
Er35     Er31    10.0   1_545     S
Er35     Er34    10.0   1_455     S
Er35     Er36    10.0   1_445     S
Er36     Er32    10.0   1_655     S
Er36     Er34    10.0   1_565     S
Er36     Er35    10.0   1_665     S
