data_bpu
_audit_creation_date              2020-02-04
_audit_creation_method            'Pymatgen'
_symmetry_space_group_name_H-M    'P1'
_symmetry_Int_Tables_number       1
loop_
_symmetry_equiv_pos_as_xyz
  x,y,z
_cell_length_a                    56.466
_cell_length_b                    56.466
_cell_length_c                    56.466
_cell_angle_alpha                 90.0
_cell_angle_beta                 90.0
_cell_angle_gamma                 90.0
loop_
_atom_site_label
_atom_site_type_symbol
_atom_site_fract_x
_atom_site_fract_y
_atom_site_fract_z
V1     V     0.0   0.9115   0.6621
V2     V     0.0   0.0885   0.6621
V3     V     0.1621   0.4115   0.5
V4     V     0.1621   0.5885   0.5
Er5     Er     0.3385   0.3386   0.8381
Er6     Er     0.1615   0.3381   0.8386
Er7     Er     0.3386   0.1619   0.6615
Er8     Er     0.3381   0.1614   0.8385
Er9     Er     0.1619   0.3385   0.6614
Er10     Er     0.1614   0.1615   0.6619
V11     V     0.9115   0.6621   0.0
V12     V     0.0885   0.6621   0.0
V13     V     0.9115   0.3379   0.0
V14     V     0.0885   0.3379   0.0
V15     V     0.6621   0.0   0.9115
V16     V     0.6621   0.0   0.0885
V17     V     0.8379   0.4115   0.5
V18     V     0.8379   0.5885   0.5
Er19     Er     0.8386   0.1615   0.6619
Er20     Er     0.8381   0.3385   0.6614
Er21     Er     0.6615   0.3386   0.8381
Er22     Er     0.8385   0.3381   0.8386
Er23     Er     0.6614   0.1619   0.6615
Er24     Er     0.6619   0.1614   0.8385
V25     V     0.5   0.1621   0.4115
V26     V     0.5   0.1621   0.5885
Er27     Er     0.8381   0.3385   0.3386
Er28     Er     0.8386   0.1615   0.3381
Er29     Er     0.6615   0.3386   0.1619
Er30     Er     0.8385   0.3381   0.1614
Er31     Er     0.6614   0.1619   0.3385
Er32     Er     0.6619   0.1614   0.1615
V33     V     0.3379   0.0   0.9115
V34     V     0.3379   0.0   0.0885
V35     V     0.5885   0.5   0.8379
V36     V     0.4115   0.5   0.8379
Er37     Er     0.1619   0.6615   0.6614
Er38     Er     0.1614   0.8385   0.6619
Er39     Er     0.3386   0.8381   0.6615
Er40     Er     0.3381   0.8386   0.8385
Er41     Er     0.3385   0.6614   0.8381
Er42     Er     0.1615   0.6619   0.8386
Er43     Er     0.6615   0.6614   0.8381
Er44     Er     0.8385   0.6619   0.8386
Er45     Er     0.8381   0.6615   0.6614
Er46     Er     0.8386   0.8385   0.6619
Er47     Er     0.6614   0.8381   0.6615
Er48     Er     0.6619   0.8386   0.8385
V49     V     0.5   0.8379   0.4115
V50     V     0.5   0.8379   0.5885
Er51     Er     0.6614   0.8381   0.3385
Er52     Er     0.6619   0.8386   0.1615
Er53     Er     0.8381   0.6615   0.3386
Er54     Er     0.8386   0.8385   0.3381
Er55     Er     0.6615   0.6614   0.1619
Er56     Er     0.8385   0.6619   0.1614
V57     V     0.4115   0.5   0.1621
V58     V     0.5885   0.5   0.1621
Er59     Er     0.3386   0.8381   0.3385
Er60     Er     0.3381   0.8386   0.1615
Er61     Er     0.1619   0.6615   0.3386
Er62     Er     0.1614   0.8385   0.3381
Er63     Er     0.3385   0.6614   0.1619
Er64     Er     0.1615   0.6619   0.1614
V65     V     0.0   0.9115   0.3379
V66     V     0.0   0.0885   0.3379
Er67     Er     0.3385   0.3386   0.1619
Er68     Er     0.1615   0.3381   0.1614
Er69     Er     0.3386   0.1619   0.3385
Er70     Er     0.3381   0.1614   0.1615
Er71     Er     0.1614   0.1615   0.3381
Er72     Er     0.1619   0.3385   0.3386
loop_
_geom_bond_atom_site_label_1
_geom_bond_atom_site_label_2
_geom_bond_distance
_geom_bond_site_symmetry_2
_ccdc_geom_bond_type
V1     V2    9.999   1_565     S
V1     Er38    10.004   .     S
V1     Er46    10.004   1_455     S
V2     V1    9.999   1_545     S
V2     Er10    10.004   .     S
V2     Er19    10.004   1_455     S
V3     V4    9.999   .     S
V3     Er9    10.004   .     S
V3     Er72    10.004   .     S
V4     Er37    10.004   .     S
V4     Er61    10.004   .     S
Er5     Er6    9.99   .     S
Er5     Er8    10.002   .     S
Er5     V36    10.004   .     S
Er6     Er9    10.002   .     S
Er6     V14    10.004   1_556     S
Er7     Er8    9.99   .     S
Er7     Er10    10.002   .     S
Er7     V26    10.004   .     S
Er8     V33    10.004   .     S
Er9     Er10    9.99   .     S
V11     V12    9.999   1_655     S
V11     Er44    10.004   1_554     S
V11     Er56    10.004   .     S
V12     V11    9.999   1_455     S
V12     Er42    10.004   1_554     S
V12     Er64    10.004   .     S
V13     V14    9.999   1_655     S
V13     Er22    10.004   1_554     S
V13     Er30    10.004   .     S
V14     Er6    10.004   1_554     S
V14     V13    9.999   1_455     S
V14     Er68    10.004   .     S
V15     V16    9.999   1_556     S
V15     Er24    10.004   .     S
V15     Er48    10.004   1_545     S
V16     V15    9.999   1_554     S
V16     Er32    10.004   .     S
V16     Er52    10.004   1_545     S
V17     V18    9.999   .     S
V17     Er20    10.004   .     S
V17     Er27    10.004   .     S
V18     Er45    10.004   .     S
V18     Er53    10.004   .     S
Er19     Er20    9.99   .     S
Er19     Er23    10.002   .     S
Er19     V2    10.004   1_655     S
Er20     Er22    10.002   .     S
Er21     Er22    9.99   .     S
Er21     Er24    10.002   .     S
Er21     V35    10.004   .     S
Er22     V13    10.004   1_556     S
Er23     Er24    9.99   .     S
Er23     V26    10.004   .     S
V25     V26    9.999   .     S
V25     Er31    10.004   .     S
V25     Er69    10.004   .     S
Er27     Er28    9.99   .     S
Er27     Er30    10.002   .     S
Er28     Er31    10.002   .     S
Er28     V66    10.004   1_655     S
Er29     Er30    9.99   .     S
Er29     Er32    10.002   .     S
Er29     V58    10.004   .     S
Er31     Er32    9.99   .     S
V33     V34    9.999   1_556     S
V33     Er40    10.004   1_545     S
V34     V33    9.999   1_554     S
V34     Er60    10.004   1_545     S
V34     Er70    10.004   .     S
V35     V36    9.999   .     S
V35     Er43    10.004   .     S
V36     Er41    10.004   .     S
Er37     Er38    9.99   .     S
Er37     Er42    10.002   .     S
Er38     Er39    10.002   .     S
Er39     Er40    9.99   .     S
Er39     V50    10.004   .     S
Er40     Er41    10.002   .     S
Er40     V33    10.004   1_565     S
Er41     Er42    9.99   .     S
Er42     V12    10.004   1_556     S
Er43     Er44    9.99   .     S
Er43     Er48    10.002   .     S
Er44     Er45    10.002   .     S
Er44     V11    10.004   1_556     S
Er45     Er46    9.99   .     S
Er46     Er47    10.002   .     S
Er46     V1    10.004   1_655     S
Er47     Er48    9.99   .     S
Er47     V50    10.004   .     S
Er48     V15    10.004   1_565     S
V49     V50    9.999   .     S
V49     Er51    10.004   .     S
V49     Er59    10.004   .     S
Er51     Er52    9.99   .     S
Er51     Er54    10.002   .     S
Er52     Er55    10.002   .     S
Er52     V16    10.004   1_565     S
Er53     Er54    9.99   .     S
Er53     Er56    10.002   .     S
Er54     V65    10.004   1_655     S
Er55     Er56    9.99   .     S
Er55     V58    10.004   .     S
V57     V58    9.999   .     S
V57     Er63    10.004   .     S
V57     Er67    10.004   .     S
Er59     Er60    9.99   .     S
Er59     Er62    10.002   .     S
Er60     Er63    10.002   .     S
Er60     V34    10.004   1_565     S
Er61     Er62    9.99   .     S
Er61     Er64    10.002   .     S
Er62     V65    10.004   .     S
Er63     Er64    9.99   .     S
V65     Er54    10.004   1_455     S
V65     V66    9.999   1_565     S
V66     Er28    10.004   1_455     S
V66     V65    9.999   1_545     S
V66     Er71    10.004   .     S
Er67     Er68    9.99   .     S
Er67     Er70    10.002   .     S
Er68     Er72    10.002   .     S
Er69     Er70    9.99   .     S
Er69     Er71    10.002   .     S
Er71     Er72    9.99   .     S
