data_bpw
_audit_creation_date              2020-02-04
_audit_creation_method            'Pymatgen'
_symmetry_space_group_name_H-M    'P1'
_symmetry_Int_Tables_number       1
loop_
_symmetry_equiv_pos_as_xyz
  x,y,z
_cell_length_a                    114.0895
_cell_length_b                    114.0895
_cell_length_c                    114.0895
_cell_angle_alpha                 90.0
_cell_angle_beta                 90.0
_cell_angle_gamma                 90.0
loop_
_atom_site_label
_atom_site_type_symbol
_atom_site_fract_x
_atom_site_fract_y
_atom_site_fract_z
Er1     Er     0.4579   0.7206   0.6938
Er2     Er     0.5562   0.7921   0.7206
Er3     Er     0.4706   0.8062   0.7079
Er4     Er     0.5421   0.7794   0.8062
Er5     Er     0.4438   0.7079   0.7794
Er6     Er     0.5294   0.6938   0.7921
Er7     Er     0.1938   0.7206   0.4579
Er8     Er     0.2794   0.7079   0.4438
Er9     Er     0.2921   0.6938   0.5294
Er10     Er     0.3062   0.7794   0.5421
Er11     Er     0.2206   0.7921   0.5562
Er12     Er     0.2079   0.8062   0.4706
Er13     Er     0.8062   0.2079   0.9706
Er14     Er     0.7921   0.2206   0.0562
Er15     Er     0.7794   0.3062   0.0421
Er16     Er     0.7079   0.2794   0.9438
Er17     Er     0.7206   0.1938   0.9579
Er18     Er     0.6938   0.2921   0.0294
Er19     Er     0.9579   0.0294   0.5562
Er20     Er     0.9438   0.0421   0.4706
Er21     Er     0.9706   0.9438   0.5421
Er22     Er     0.0562   0.9579   0.5294
Er23     Er     0.0421   0.9706   0.4438
Er24     Er     0.0294   0.0562   0.4579
Er25     Er     0.4579   0.1938   0.7206
Er26     Er     0.4438   0.2794   0.7079
Er27     Er     0.5294   0.2921   0.6938
Er28     Er     0.5562   0.2206   0.7921
Er29     Er     0.5421   0.3062   0.7794
Er30     Er     0.4706   0.2079   0.8062
Er31     Er     0.4438   0.7794   0.2079
Er32     Er     0.5421   0.8062   0.2794
Er33     Er     0.5294   0.7921   0.1938
Er34     Er     0.5562   0.7206   0.2921
Er35     Er     0.4579   0.6938   0.2206
Er36     Er     0.4706   0.7079   0.3062
Er37     Er     0.7794   0.2079   0.4438
Er38     Er     0.8062   0.2794   0.5421
Er39     Er     0.7921   0.1938   0.5294
Er40     Er     0.7206   0.2921   0.5562
Er41     Er     0.6938   0.2206   0.4579
Er42     Er     0.7079   0.3062   0.4706
Er43     Er     0.5562   0.2921   0.2206
Er44     Er     0.4706   0.3062   0.2079
Er45     Er     0.5421   0.2794   0.3062
Er46     Er     0.4579   0.2206   0.1938
Er47     Er     0.4438   0.2079   0.2794
Er48     Er     0.5294   0.1938   0.2921
Er49     Er     0.7206   0.4579   0.1938
Er50     Er     0.7079   0.4438   0.2794
Er51     Er     0.6938   0.5294   0.2921
Er52     Er     0.7921   0.5562   0.2206
Er53     Er     0.7794   0.5421   0.3062
Er54     Er     0.8062   0.4706   0.2079
Er55     Er     0.2794   0.5421   0.8062
Er56     Er     0.1938   0.5294   0.7921
Er57     Er     0.2079   0.4438   0.7794
Er58     Er     0.2921   0.5562   0.7206
Er59     Er     0.2206   0.4579   0.6938
Er60     Er     0.3062   0.4706   0.7079
Er61     Er     0.2079   0.9706   0.8062
Er62     Er     0.2206   0.0562   0.7921
Er63     Er     0.3062   0.0421   0.7794
Er64     Er     0.2794   0.9438   0.7079
Er65     Er     0.1938   0.9579   0.7206
Er66     Er     0.2921   0.0294   0.6938
Er67     Er     0.2079   0.7794   0.9438
Er68     Er     0.2206   0.6938   0.9579
Er69     Er     0.1938   0.7921   0.0294
Er70     Er     0.2794   0.8062   0.0421
Er71     Er     0.3062   0.7079   0.9706
Er72     Er     0.2921   0.7206   0.0562
Er73     Er     0.7921   0.0294   0.1938
Er74     Er     0.8062   0.0421   0.2794
Er75     Er     0.7794   0.9438   0.2079
Er76     Er     0.6938   0.9579   0.2206
Er77     Er     0.7206   0.0562   0.2921
Er78     Er     0.7079   0.9706   0.3062
Er79     Er     0.5562   0.5294   0.9579
Er80     Er     0.4706   0.5421   0.9438
Er81     Er     0.5421   0.4438   0.9706
Er82     Er     0.4579   0.5562   0.0294
Er83     Er     0.5294   0.4579   0.0562
Er84     Er     0.4438   0.4706   0.0421
Er85     Er     0.2794   0.2079   0.9438
Er86     Er     0.1938   0.2206   0.9579
Er87     Er     0.2206   0.2921   0.0562
Er88     Er     0.2079   0.3062   0.9706
Er89     Er     0.3062   0.2794   0.0421
Er90     Er     0.2921   0.1938   0.0294
Er91     Er     0.5294   0.9579   0.5562
Er92     Er     0.5562   0.0293   0.4579
Er93     Er     0.5421   0.9438   0.4706
Er94     Er     0.4438   0.9706   0.5421
Er95     Er     0.4579   0.0562   0.5294
Er96     Er     0.4706   0.0421   0.4438
Er97     Er     0.0421   0.4706   0.9438
Er98     Er     0.0294   0.5562   0.9579
Er99     Er     0.9438   0.5421   0.9706
Er100     Er     0.9579   0.5294   0.0562
Er101     Er     0.9706   0.4438   0.0421
Er102     Er     0.0562   0.4579   0.0294
Er103     Er     0.2079   0.9438   0.2794
Er104     Er     0.2206   0.9579   0.1938
Er105     Er     0.2794   0.0421   0.3062
Er106     Er     0.2921   0.0562   0.2206
Er107     Er     0.3062   0.9706   0.2079
Er108     Er     0.1938   0.0294   0.2921
Er109     Er     0.8062   0.5421   0.7794
Er110     Er     0.7206   0.5562   0.7921
Er111     Er     0.7079   0.4706   0.8062
Er112     Er     0.6938   0.4579   0.7206
Er113     Er     0.7794   0.4438   0.7079
Er114     Er     0.7921   0.5294   0.6938
Er115     Er     0.9579   0.5562   0.5294
Er116     Er     0.9438   0.4706   0.5421
Er117     Er     0.9706   0.5421   0.4438
Er118     Er     0.0294   0.4579   0.5562
Er119     Er     0.0562   0.5294   0.4579
Er120     Er     0.0421   0.4438   0.4706
Er121     Er     0.9438   0.2794   0.2079
Er122     Er     0.9579   0.1938   0.2206
Er123     Er     0.0421   0.3062   0.2794
Er124     Er     0.0562   0.2206   0.2921
Er125     Er     0.9706   0.2079   0.3062
Er126     Er     0.0294   0.2921   0.1938
Er127     Er     0.9579   0.7206   0.1938
Er128     Er     0.9438   0.7079   0.2794
Er129     Er     0.0421   0.7794   0.3062
Er130     Er     0.9706   0.8062   0.2079
Er131     Er     0.0562   0.7921   0.2206
Er132     Er     0.0294   0.6938   0.2921
Er133     Er     0.7206   0.6938   0.4579
Er134     Er     0.7079   0.7794   0.4438
Er135     Er     0.6938   0.7921   0.5294
Er136     Er     0.7794   0.8062   0.5421
Er137     Er     0.7921   0.7206   0.5562
Er138     Er     0.8062   0.7079   0.4706
Er139     Er     0.7794   0.7079   0.9438
Er140     Er     0.6938   0.7206   0.9579
Er141     Er     0.7206   0.7921   0.0562
Er142     Er     0.7079   0.8062   0.9706
Er143     Er     0.8062   0.7794   0.0421
Er144     Er     0.7921   0.6938   0.0294
Er145     Er     0.5421   0.4706   0.4438
Er146     Er     0.5294   0.5562   0.4579
Er147     Er     0.4438   0.5421   0.4706
Er148     Er     0.4579   0.5294   0.5562
Er149     Er     0.5562   0.4579   0.5294
Er150     Er     0.4706   0.4438   0.5421
Er151     Er     0.7079   0.9438   0.7794
Er152     Er     0.7206   0.9579   0.6938
Er153     Er     0.7921   0.0562   0.7206
Er154     Er     0.8062   0.9706   0.7079
Er155     Er     0.7794   0.0421   0.8062
Er156     Er     0.6938   0.0294   0.7921
Er157     Er     0.9706   0.0421   0.9438
Er158     Er     0.0421   0.9438   0.9706
Er159     Er     0.0562   0.0293   0.9579
Er160     Er     0.0294   0.9579   0.0562
Er161     Er     0.9438   0.9706   0.0421
Er162     Er     0.9579   0.0562   0.0294
Er163     Er     0.9438   0.7794   0.7079
Er164     Er     0.9579   0.6938   0.7206
Er165     Er     0.0562   0.7206   0.7921
Er166     Er     0.9706   0.7079   0.8062
Er167     Er     0.0421   0.8062   0.7794
Er168     Er     0.0294   0.7921   0.6938
Er169     Er     0.5562   0.9579   0.0294
Er170     Er     0.4706   0.9438   0.0421
Er171     Er     0.4438   0.0421   0.9706
Er172     Er     0.4579   0.0294   0.0562
Er173     Er     0.5421   0.9706   0.9438
Er174     Er     0.5294   0.0562   0.9579
Er175     Er     0.2794   0.3062   0.5421
Er176     Er     0.2921   0.2206   0.5562
Er177     Er     0.3062   0.2079   0.4706
Er178     Er     0.2206   0.1938   0.4579
Er179     Er     0.2079   0.2794   0.4438
Er180     Er     0.1938   0.2921   0.5294
Er181     Er     0.2206   0.5562   0.2921
Er182     Er     0.2079   0.4706   0.3062
Er183     Er     0.3062   0.5421   0.2794
Er184     Er     0.1938   0.4579   0.2206
Er185     Er     0.2794   0.4438   0.2079
Er186     Er     0.2921   0.5294   0.1938
V187     V     0.7075   0.8731   0.8312
V188     V     0.6269   0.7925   0.6688
V189     V     0.8731   0.8312   0.7075
V190     V     0.8312   0.7075   0.8731
V191     V     0.7925   0.6688   0.6269
Ti192     Ti     0.7927   0.7062   0.7062
Ti193     Ti     0.7938   0.7938   0.7073
Ti194     Ti     0.7062   0.7062   0.7927
Ti195     Ti     0.7938   0.7073   0.7938
Ti196     Ti     0.7062   0.7927   0.7062
Ti197     Ti     0.7073   0.7938   0.7938
V198     V     0.6688   0.6269   0.7925
V199     V     0.5812   0.6231   0.7925
V200     V     0.6231   0.4575   0.6688
V201     V     0.5425   0.3769   0.8312
V202     V     0.3769   0.4188   0.7075
V203     V     0.4575   0.5812   0.6269
Ti204     Ti     0.4562   0.4562   0.7073
Ti205     Ti     0.4573   0.5438   0.7062
Ti206     Ti     0.5438   0.4573   0.7062
Ti207     Ti     0.5427   0.4562   0.7938
Ti208     Ti     0.4562   0.5427   0.7938
Ti209     Ti     0.5438   0.5438   0.7927
V210     V     0.4188   0.5425   0.8731
V211     V     0.6231   0.7925   0.5812
V212     V     0.4575   0.6688   0.6231
V213     V     0.3769   0.8312   0.5425
V214     V     0.4188   0.7075   0.3769
V215     V     0.5812   0.6269   0.4575
Ti216     Ti     0.4562   0.7073   0.4562
Ti217     Ti     0.5438   0.7062   0.4573
Ti218     Ti     0.5427   0.7938   0.4562
Ti219     Ti     0.5438   0.7927   0.5438
Ti220     Ti     0.4573   0.7062   0.5438
Ti221     Ti     0.4562   0.7938   0.5427
V222     V     0.5425   0.8731   0.4188
V223     V     0.1269   0.7925   0.1688
V224     V     0.3312   0.7075   0.3731
V225     V     0.2925   0.6688   0.1269
V226     V     0.2075   0.8731   0.3312
V227     V     0.1688   0.6269   0.2925
Ti228     Ti     0.2927   0.7062   0.2062
Ti229     Ti     0.2938   0.7938   0.2073
Ti230     Ti     0.2062   0.7927   0.2062
Ti231     Ti     0.2073   0.7938   0.2938
Ti232     Ti     0.2062   0.7062   0.2927
Ti233     Ti     0.2938   0.7073   0.2938
V234     V     0.3731   0.8312   0.2075
V235     V     0.0812   0.6231   0.2925
V236     V     0.0425   0.3769   0.3312
V237     V     0.9188   0.5425   0.3731
V238     V     0.1231   0.4575   0.1688
V239     V     0.9575   0.5812   0.1269
Ti240     Ti     0.9562   0.4562   0.2073
Ti241     Ti     0.9573   0.5438   0.2062
Ti242     Ti     0.9562   0.5427   0.2938
Ti243     Ti     0.0438   0.5438   0.2927
Ti244     Ti     0.0438   0.4573   0.2062
Ti245     Ti     0.0427   0.4562   0.2938
V246     V     0.8769   0.4188   0.2075
V247     V     0.8312   0.2075   0.3731
V248     V     0.6269   0.2925   0.1688
V249     V     0.7925   0.1688   0.1269
V250     V     0.7075   0.3731   0.3312
V251     V     0.8731   0.3312   0.2075
Ti252     Ti     0.7062   0.2927   0.2062
Ti253     Ti     0.7073   0.2938   0.2938
Ti254     Ti     0.7927   0.2062   0.2062
Ti255     Ti     0.7938   0.2938   0.2073
Ti256     Ti     0.7062   0.2062   0.2927
Ti257     Ti     0.7938   0.2073   0.2938
V258     V     0.6688   0.1269   0.2925
V259     V     0.8731   0.9188   0.0425
V260     V     0.7075   0.8769   0.9188
V261     V     0.7925   0.0812   0.1231
V262     V     0.6688   0.1231   0.9575
V263     V     0.6269   0.9575   0.0812
Ti264     Ti     0.7062   0.0438   0.9573
Ti265     Ti     0.7938   0.0427   0.9562
Ti266     Ti     0.7062   0.9573   0.0438
Ti267     Ti     0.7073   0.9562   0.9562
Ti268     Ti     0.7938   0.9562   0.0427
Ti269     Ti     0.7927   0.0438   0.0438
V270     V     0.8312   0.0425   0.8769
V271     V     0.5812   0.1231   0.2925
V272     V     0.6231   0.9575   0.1688
V273     V     0.3769   0.9188   0.2075
V274     V     0.4575   0.0812   0.1269
V275     V     0.4188   0.0425   0.3731
Ti276     Ti     0.5427   0.9562   0.2938
Ti277     Ti     0.5438   0.9573   0.2062
Ti278     Ti     0.4562   0.0427   0.2938
Ti279     Ti     0.5438   0.0438   0.2927
Ti280     Ti     0.4562   0.9562   0.2073
Ti281     Ti     0.4573   0.0438   0.2062
V282     V     0.5425   0.8769   0.3312
V283     V     0.0425   0.8731   0.9188
V284     V     0.9188   0.7075   0.8769
V285     V     0.1231   0.7925   0.0812
V286     V     0.9575   0.6688   0.1231
V287     V     0.0812   0.6269   0.9575
Ti288     Ti     0.9573   0.7062   0.0438
Ti289     Ti     0.9562   0.7938   0.0427
Ti290     Ti     0.9562   0.7073   0.9562
Ti291     Ti     0.0438   0.7062   0.9573
Ti292     Ti     0.0427   0.7938   0.9562
Ti293     Ti     0.0438   0.7927   0.0438
V294     V     0.8769   0.8312   0.0425
V295     V     0.6231   0.2925   0.0812
V296     V     0.5425   0.3731   0.9188
V297     V     0.4575   0.1688   0.1231
V298     V     0.5812   0.1269   0.9575
V299     V     0.3769   0.3312   0.0425
Ti300     Ti     0.4562   0.2938   0.0427
Ti301     Ti     0.4573   0.2062   0.0438
Ti302     Ti     0.5427   0.2938   0.9562
Ti303     Ti     0.5438   0.2927   0.0438
Ti304     Ti     0.5438   0.2062   0.9573
Ti305     Ti     0.4562   0.2073   0.9562
V306     V     0.4188   0.2075   0.8769
V307     V     0.1688   0.6231   0.9575
V308     V     0.2075   0.3769   0.9188
V309     V     0.1269   0.4575   0.0812
V310     V     0.3731   0.4188   0.0425
V311     V     0.2925   0.5812   0.1231
Ti312     Ti     0.2073   0.4562   0.9562
Ti313     Ti     0.2062   0.4573   0.0438
Ti314     Ti     0.2062   0.5438   0.9573
Ti315     Ti     0.2938   0.5427   0.9562
Ti316     Ti     0.2938   0.4562   0.0427
Ti317     Ti     0.2927   0.5438   0.0438
V318     V     0.3312   0.5425   0.8769
V319     V     0.1688   0.1269   0.7925
V320     V     0.3731   0.3312   0.7075
V321     V     0.1269   0.2925   0.6688
V322     V     0.2925   0.1688   0.6269
V323     V     0.3312   0.2075   0.8731
Ti324     Ti     0.2927   0.2062   0.7062
Ti325     Ti     0.2938   0.2938   0.7073
Ti326     Ti     0.2062   0.2927   0.7062
Ti327     Ti     0.2073   0.2938   0.7938
Ti328     Ti     0.2062   0.2062   0.7927
Ti329     Ti     0.2938   0.2073   0.7938
V330     V     0.2075   0.3731   0.8312
V331     V     0.1269   0.9575   0.5812
V332     V     0.1688   0.1231   0.4575
V333     V     0.2925   0.0812   0.6231
V334     V     0.3731   0.9188   0.5425
V335     V     0.3312   0.0425   0.3769
Ti336     Ti     0.2073   0.9562   0.4562
Ti337     Ti     0.2062   0.9573   0.5438
Ti338     Ti     0.2938   0.9562   0.5427
Ti339     Ti     0.2927   0.0438   0.5438
Ti340     Ti     0.2062   0.0438   0.4573
Ti341     Ti     0.2938   0.0427   0.4562
V342     V     0.2075   0.8769   0.4188
V343     V     0.8769   0.9188   0.7075
V344     V     0.9188   0.0425   0.8731
V345     V     0.0812   0.1231   0.7925
V346     V     0.1231   0.9575   0.6688
V347     V     0.9575   0.0812   0.6269
Ti348     Ti     0.0438   0.9573   0.7062
Ti349     Ti     0.0427   0.9562   0.7938
Ti350     Ti     0.9562   0.9562   0.7073
Ti351     Ti     0.9573   0.0438   0.7062
Ti352     Ti     0.9562   0.0427   0.7938
Ti353     Ti     0.0438   0.0438   0.7927
V354     V     0.0425   0.8769   0.8312
V355     V     0.9575   0.1688   0.6231
V356     V     0.9188   0.2075   0.3769
V357     V     0.0812   0.1269   0.4575
V358     V     0.1231   0.2925   0.5812
V359     V     0.8769   0.3312   0.5425
Ti360     Ti     0.9562   0.2073   0.4562
Ti361     Ti     0.0438   0.2062   0.4573
Ti362     Ti     0.9562   0.2938   0.5427
Ti363     Ti     0.9573   0.2062   0.5438
Ti364     Ti     0.0427   0.2938   0.4562
Ti365     Ti     0.0438   0.2927   0.5438
V366     V     0.0425   0.3731   0.4188
V367     V     0.6688   0.6231   0.4575
V368     V     0.7925   0.5812   0.6231
V369     V     0.6269   0.4575   0.5812
V370     V     0.8312   0.5425   0.3769
V371     V     0.8731   0.4188   0.5425
Ti372     Ti     0.7073   0.4562   0.4562
Ti373     Ti     0.7062   0.4573   0.5438
Ti374     Ti     0.7062   0.5438   0.4573
Ti375     Ti     0.7938   0.5427   0.4562
Ti376     Ti     0.7938   0.4562   0.5427
Ti377     Ti     0.7927   0.5438   0.5438
V378     V     0.7075   0.3769   0.4188
Er379     Er     0.9438   0.2079   0.7794
Er380     Er     0.0421   0.2794   0.8062
Er381     Er     0.0294   0.1938   0.7921
Er382     Er     0.9579   0.2206   0.6938
Er383     Er     0.9706   0.3062   0.7079
Er384     Er     0.0562   0.2921   0.7206
V385     V     0.6688   0.7925   0.1269
V386     V     0.7075   0.8312   0.3731
V387     V     0.6269   0.6688   0.2925
V388     V     0.8312   0.8731   0.2075
V389     V     0.8731   0.7075   0.3312
Ti390     Ti     0.7927   0.7062   0.2062
Ti391     Ti     0.7938   0.7073   0.2938
Ti392     Ti     0.7062   0.7062   0.2927
Ti393     Ti     0.7073   0.7938   0.2938
Ti394     Ti     0.7062   0.7927   0.2062
Ti395     Ti     0.7938   0.7938   0.2073
V396     V     0.7925   0.6269   0.1688
V397     V     0.7925   0.1269   0.6688
V398     V     0.6688   0.2925   0.6269
V399     V     0.8312   0.3731   0.7075
V400     V     0.8731   0.2075   0.8312
V401     V     0.7075   0.3312   0.8731
Ti402     Ti     0.7073   0.2938   0.7938
Ti403     Ti     0.7062   0.2062   0.7927
Ti404     Ti     0.7062   0.2927   0.7062
Ti405     Ti     0.7938   0.2938   0.7073
Ti406     Ti     0.7927   0.2062   0.7062
Ti407     Ti     0.7938   0.2073   0.7938
V408     V     0.6269   0.1688   0.7925
V409     V     0.6688   0.4575   0.1231
V410     V     0.7925   0.6231   0.0812
V411     V     0.8731   0.5425   0.9188
V412     V     0.8312   0.3769   0.0425
V413     V     0.6269   0.5812   0.9575
Ti414     Ti     0.7062   0.4573   0.0438
Ti415     Ti     0.7938   0.4562   0.0427
Ti416     Ti     0.7062   0.5438   0.9573
Ti417     Ti     0.7073   0.4562   0.9562
Ti418     Ti     0.7938   0.5427   0.9562
Ti419     Ti     0.7927   0.5438   0.0438
V420     V     0.7075   0.4188   0.8769
V421     V     0.6231   0.6688   0.9575
V422     V     0.5812   0.7925   0.1231
V423     V     0.3769   0.7075   0.9188
V424     V     0.5425   0.8312   0.8769
V425     V     0.4575   0.6269   0.0812
Ti426     Ti     0.5438   0.7927   0.0438
Ti427     Ti     0.4562   0.7938   0.0427
Ti428     Ti     0.4562   0.7073   0.9562
Ti429     Ti     0.4573   0.7062   0.0438
Ti430     Ti     0.5438   0.7062   0.9573
Ti431     Ti     0.5427   0.7938   0.9562
V432     V     0.4188   0.8731   0.0425
V433     V     0.5425   0.4188   0.3731
V434     V     0.6231   0.5812   0.2925
V435     V     0.5812   0.4575   0.1269
V436     V     0.4575   0.6231   0.1688
V437     V     0.3769   0.5425   0.3312
Ti438     Ti     0.4562   0.5427   0.2938
Ti439     Ti     0.4573   0.5438   0.2062
Ti440     Ti     0.5438   0.4573   0.2062
Ti441     Ti     0.4562   0.4562   0.2073
Ti442     Ti     0.5427   0.4562   0.2938
Ti443     Ti     0.5438   0.5438   0.2927
V444     V     0.4188   0.3769   0.2075
V445     V     0.5812   0.2925   0.6231
V446     V     0.4575   0.1269   0.5812
V447     V     0.6231   0.1688   0.4575
V448     V     0.3769   0.2075   0.4188
V449     V     0.4188   0.3731   0.5425
Ti450     Ti     0.5438   0.2927   0.5438
Ti451     Ti     0.4562   0.2938   0.5427
Ti452     Ti     0.4573   0.2062   0.5438
Ti453     Ti     0.4562   0.2073   0.4562
Ti454     Ti     0.5438   0.2062   0.4573
Ti455     Ti     0.5427   0.2938   0.4562
V456     V     0.5425   0.3312   0.3769
V457     V     0.4575   0.1231   0.6688
V458     V     0.6231   0.0812   0.7925
V459     V     0.5425   0.9188   0.8731
V460     V     0.3769   0.0425   0.8312
V461     V     0.5812   0.9575   0.6269
Ti462     Ti     0.4573   0.0438   0.7062
Ti463     Ti     0.4562   0.0427   0.7938
Ti464     Ti     0.5438   0.9573   0.7062
Ti465     Ti     0.4562   0.9562   0.7073
Ti466     Ti     0.5427   0.9562   0.7938
Ti467     Ti     0.5438   0.0438   0.7927
V468     V     0.4188   0.8769   0.7075
V469     V     0.6688   0.9575   0.6231
V470     V     0.7925   0.1231   0.5812
V471     V     0.8312   0.8769   0.5425
V472     V     0.7075   0.9188   0.3769
V473     V     0.8731   0.0425   0.4188
Ti474     Ti     0.7938   0.0427   0.4562
Ti475     Ti     0.7927   0.0438   0.5438
Ti476     Ti     0.7073   0.9562   0.4562
Ti477     Ti     0.7062   0.0438   0.4573
Ti478     Ti     0.7062   0.9573   0.5438
Ti479     Ti     0.7938   0.9562   0.5427
V480     V     0.6269   0.0812   0.4575
V481     V     0.1231   0.6688   0.4575
V482     V     0.0812   0.7925   0.6231
V483     V     0.9188   0.8731   0.5425
V484     V     0.0425   0.8312   0.3769
V485     V     0.9575   0.6269   0.5812
Ti486     Ti     0.0438   0.7062   0.4573
Ti487     Ti     0.0427   0.7938   0.4562
Ti488     Ti     0.9573   0.7062   0.5438
Ti489     Ti     0.9562   0.7073   0.4562
Ti490     Ti     0.9562   0.7938   0.5427
Ti491     Ti     0.0438   0.7927   0.5438
V492     V     0.8769   0.7075   0.4188
V493     V     0.1269   0.6688   0.7925
V494     V     0.2925   0.6269   0.6688
V495     V     0.2075   0.8312   0.8731
V496     V     0.3731   0.7075   0.8312
V497     V     0.1688   0.7925   0.6269
Ti498     Ti     0.2062   0.7062   0.7927
Ti499     Ti     0.2073   0.7938   0.7938
Ti500     Ti     0.2062   0.7927   0.7062
Ti501     Ti     0.2938   0.7938   0.7073
Ti502     Ti     0.2927   0.7062   0.7062
Ti503     Ti     0.2938   0.7073   0.7938
V504     V     0.3312   0.8731   0.7075
V505     V     0.1688   0.9575   0.1231
V506     V     0.2075   0.9188   0.8769
V507     V     0.3731   0.0425   0.9188
V508     V     0.2925   0.1231   0.0812
V509     V     0.1269   0.0812   0.9575
Ti510     Ti     0.2938   0.0427   0.9562
Ti511     Ti     0.2927   0.0438   0.0438
Ti512     Ti     0.2062   0.9573   0.0438
Ti513     Ti     0.2938   0.9562   0.0427
Ti514     Ti     0.2073   0.9562   0.9562
Ti515     Ti     0.2062   0.0438   0.9573
V516     V     0.3312   0.8769   0.0425
V517     V     0.0425   0.9188   0.3731
V518     V     0.9575   0.1231   0.1688
V519     V     0.9188   0.8769   0.2075
V520     V     0.0812   0.9575   0.1269
V521     V     0.1231   0.0812   0.2925
Ti522     Ti     0.0427   0.9562   0.2938
Ti523     Ti     0.0438   0.0438   0.2927
Ti524     Ti     0.9562   0.9562   0.2073
Ti525     Ti     0.0438   0.9573   0.2062
Ti526     Ti     0.9573   0.0438   0.2062
Ti527     Ti     0.9562   0.0427   0.2938
V528     V     0.8769   0.0425   0.3312
V529     V     0.9188   0.3731   0.0425
V530     V     0.8769   0.2075   0.9188
V531     V     0.9575   0.1269   0.0812
V532     V     0.1231   0.1688   0.9575
V533     V     0.0812   0.2925   0.1231
Ti534     Ti     0.9562   0.2073   0.9562
Ti535     Ti     0.9573   0.2062   0.0438
Ti536     Ti     0.0427   0.2938   0.9562
Ti537     Ti     0.0438   0.2062   0.9573
Ti538     Ti     0.9562   0.2938   0.0427
Ti539     Ti     0.0438   0.2927   0.0438
V540     V     0.0425   0.3312   0.8769
V541     V     0.1688   0.2925   0.1269
V542     V     0.3312   0.3731   0.2075
V543     V     0.2075   0.3312   0.3731
V544     V     0.2925   0.1269   0.1688
V545     V     0.1269   0.1688   0.2925
Ti546     Ti     0.2073   0.2938   0.2938
Ti547     Ti     0.2062   0.2062   0.2927
Ti548     Ti     0.2927   0.2062   0.2062
Ti549     Ti     0.2938   0.2073   0.2938
Ti550     Ti     0.2062   0.2927   0.2062
Ti551     Ti     0.2938   0.2938   0.2073
V552     V     0.3731   0.2075   0.3312
V553     V     0.9575   0.6231   0.6688
V554     V     0.1231   0.5812   0.7925
V555     V     0.8769   0.5425   0.8312
V556     V     0.9188   0.3769   0.7075
V557     V     0.0812   0.4575   0.6269
Ti558     Ti     0.9562   0.4562   0.7073
Ti559     Ti     0.0438   0.4573   0.7062
Ti560     Ti     0.9573   0.5438   0.7062
Ti561     Ti     0.9562   0.5427   0.7938
Ti562     Ti     0.0427   0.4562   0.7938
Ti563     Ti     0.0438   0.5438   0.7927
V564     V     0.0425   0.4188   0.8731
V565     V     0.2925   0.6231   0.5812
V566     V     0.1269   0.5812   0.4575
V567     V     0.1688   0.4575   0.6231
V568     V     0.2075   0.4188   0.3769
V569     V     0.3731   0.5425   0.4188
Ti570     Ti     0.2938   0.5427   0.4562
Ti571     Ti     0.2927   0.5438   0.5438
Ti572     Ti     0.2073   0.4562   0.4562
Ti573     Ti     0.2062   0.5438   0.4573
Ti574     Ti     0.2062   0.4573   0.5438
Ti575     Ti     0.2938   0.4562   0.5427
V576     V     0.3312   0.3769   0.5425
loop_
_geom_bond_atom_site_label_1
_geom_bond_atom_site_label_2
_geom_bond_distance
_geom_bond_site_symmetry_2
_ccdc_geom_bond_type
Er1     Er3    9.997   .     S
Er1     Er5    9.997   .     S
Er1     V212    10.004   .     S
Er2     Er3    9.997   .     S
Er2     Er4    9.997   .     S
Er2     V188    10.004   .     S
Er3     V468    10.004   .     S
Er4     Er6    9.997   .     S
Er4     V424    10.004   .     S
Er5     Er6    9.997   .     S
Er5     V496    10.004   .     S
Er6     V199    10.004   .     S
Er7     Er12    9.997   .     S
Er7     Er8    9.997   .     S
Er7     V481    10.004   .     S
Er8     Er9    9.997   .     S
Er8     V224    10.004   .     S
Er9     Er10    9.997   .     S
Er9     V565    10.004   .     S
Er10     Er11    9.997   .     S
Er10     V213    10.004   .     S
Er11     Er12    9.997   .     S
Er11     V497    10.004   .     S
Er12     V342    10.004   .     S
Er13     Er14    9.997   1_556     S
Er13     Er17    9.997   .     S
Er13     V530    10.004   .     S
Er14     Er13    9.997   1_554     S
Er14     Er15    9.997   .     S
Er14     V249    10.004   .     S
Er15     Er18    9.997   .     S
Er15     V412    10.004   .     S
Er16     Er18    9.997   1_556     S
Er16     Er17    9.997   .     S
Er16     V401    10.004   .     S
Er17     V262    10.004   .     S
Er18     Er16    9.997   1_554     S
Er18     V295    10.004   .     S
Er19     Er20    9.997   .     S
Er19     Er21    9.997   1_545     S
Er19     V347    10.004   .     S
Er20     Er24    9.997   1_655     S
Er20     V473    10.004   .     S
Er21     Er22    9.997   1_655     S
Er21     Er19    9.997   1_565     S
Er21     V483    10.004   .     S
Er22     Er21    9.997   1_455     S
Er22     Er23    9.997   .     S
Er22     V331    10.004   .     S
Er23     Er24    9.997   1_565     S
Er23     V517    10.004   .     S
Er24     Er20    9.997   1_455     S
Er24     Er23    9.997   1_545     S
Er24     V357    10.004   .     S
Er25     Er30    9.997   .     S
Er25     Er26    9.997   .     S
Er25     V457    10.004   .     S
Er26     Er27    9.997   .     S
Er26     V320    10.004   .     S
Er27     Er29    9.997   .     S
Er27     V445    10.004   .     S
Er28     Er30    9.997   .     S
Er28     Er29    9.997   .     S
Er28     V408    10.004   .     S
Er29     V201    10.004   .     S
Er30     V306    10.004   .     S
Er31     Er35    9.997   .     S
Er31     Er33    9.997   .     S
Er31     V234    10.004   .     S
Er32     Er33    9.997   .     S
Er32     Er34    9.997   .     S
Er32     V282    10.004   .     S
Er33     V422    10.004   .     S
Er34     Er36    9.997   .     S
Er34     V387    10.004   .     S
Er35     Er36    9.997   .     S
Er35     V436    10.004   .     S
Er36     V214    10.004   .     S
Er37     Er39    9.997   .     S
Er37     Er41    9.997   .     S
Er37     V247    10.004   .     S
Er38     Er39    9.997   .     S
Er38     Er40    9.997   .     S
Er38     V359    10.004   .     S
Er39     V470    10.004   .     S
Er40     Er42    9.997   .     S
Er40     V398    10.004   .     S
Er41     Er42    9.997   .     S
Er41     V447    10.004   .     S
Er42     V378    10.004   .     S
Er43     Er44    9.997   .     S
Er43     Er45    9.997   .     S
Er43     V248    10.004   .     S
Er44     Er46    9.997   .     S
Er44     V444    10.004   .     S
Er45     Er48    9.997   .     S
Er45     V456    10.004   .     S
Er46     Er47    9.997   .     S
Er46     V297    10.004   .     S
Er47     Er48    9.997   .     S
Er47     V552    10.004   .     S
Er48     V271    10.004   .     S
Er49     Er54    9.997   .     S
Er49     Er50    9.997   .     S
Er49     V409    10.004   .     S
Er50     Er51    9.997   .     S
Er50     V250    10.004   .     S
Er51     Er53    9.997   .     S
Er51     V434    10.004   .     S
Er52     Er54    9.997   .     S
Er52     Er53    9.997   .     S
Er52     V396    10.004   .     S
Er53     V370    10.004   .     S
Er54     V246    10.004   .     S
Er55     Er56    9.997   .     S
Er55     Er58    9.997   .     S
Er55     V318    10.004   .     S
Er56     Er57    9.997   .     S
Er56     V554    10.004   .     S
Er57     Er59    9.997   .     S
Er57     V330    10.004   .     S
Er58     Er60    9.997   .     S
Er58     V494    10.004   .     S
Er59     Er60    9.997   .     S
Er59     V567    10.004   .     S
Er60     V202    10.004   .     S
Er61     Er62    9.997   1_565     S
Er61     Er65    9.997   .     S
Er61     V506    10.004   .     S
Er62     Er61    9.997   1_545     S
Er62     Er63    9.997   .     S
Er62     V319    10.004   .     S
Er63     Er66    9.997   .     S
Er63     V460    10.004   .     S
Er64     Er66    9.997   1_565     S
Er64     Er65    9.997   .     S
Er64     V504    10.004   .     S
Er65     V346    10.004   .     S
Er66     Er64    9.997   1_545     S
Er66     V333    10.004   .     S
Er67     Er68    9.997   .     S
Er67     Er69    9.997   1_556     S
Er67     V495    10.004   .     S
Er68     Er71    9.997   .     S
Er68     V307    10.004   .     S
Er69     Er67    9.997   1_554     S
Er69     Er70    9.997   .     S
Er69     V285    10.004   .     S
Er70     Er72    9.997   .     S
Er70     V516    10.004   .     S
Er71     Er72    9.997   1_556     S
Er71     V423    10.004   .     S
Er72     Er71    9.997   1_554     S
Er72     V225    10.004   .     S
Er73     Er74    9.997   .     S
Er73     Er75    9.997   1_545     S
Er73     V261    10.004   .     S
Er74     Er77    9.997   .     S
Er74     V528    10.004   .     S
Er75     Er73    9.997   1_565     S
Er75     Er76    9.997   .     S
Er75     V388    10.004   .     S
Er76     Er78    9.997   .     S
Er76     V272    10.004   .     S
Er77     Er78    9.997   1_545     S
Er77     V258    10.004   .     S
Er78     Er77    9.997   1_565     S
Er78     V472    10.004   .     S
Er79     Er80    9.997   .     S
Er79     Er81    9.997   .     S
Er79     V413    10.004   .     S
Er80     Er82    9.997   1_556     S
Er80     V210    10.004   .     S
Er81     Er83    9.997   1_556     S
Er81     V296    10.004   .     S
Er82     Er80    9.997   1_554     S
Er82     Er84    9.997   .     S
Er82     V425    10.004   .     S
Er83     Er81    9.997   1_554     S
Er83     Er84    9.997   .     S
Er83     V435    10.004   .     S
Er84     V310    10.004   .     S
Er85     Er90    9.997   1_556     S
Er85     Er86    9.997   .     S
Er85     V323    10.004   .     S
Er86     Er88    9.997   .     S
Er86     V532    10.004   .     S
Er87     Er88    9.997   1_554     S
Er87     Er89    9.997   .     S
Er87     V541    10.004   .     S
Er88     Er87    9.997   1_556     S
Er88     V308    10.004   .     S
Er89     Er90    9.997   .     S
Er89     V299    10.004   .     S
Er90     Er85    9.997   1_554     S
Er90     V508    10.004   .     S
Er91     Er93    9.997   .     S
Er91     Er94    9.997   .     S
Er91     V461    10.004   .     S
Er92     Er93    9.997   1_545     S
Er92     Er96    9.997   .     S
Er92     V480    10.004   .     S
Er93     Er92    9.997   1_565     S
Er93     V222    10.004   .     S
Er94     Er95    9.997   1_565     S
Er94     V334    10.004   .     S
Er95     Er94    9.997   1_545     S
Er95     Er96    9.997   .     S
Er95     V446    10.004   .     S
Er96     V275    10.004   .     S
Er97     Er102    9.997   1_556     S
Er97     Er98    9.997   .     S
Er97     V564    10.004   .     S
Er98     Er99    9.997   1_455     S
Er98     V287    10.004   .     S
Er99     Er98    9.997   1_655     S
Er99     Er100    9.997   1_556     S
Er99     V411    10.004   .     S
Er100     Er99    9.997   1_554     S
Er100     Er101    9.997   .     S
Er100     V239    10.004   .     S
Er101     Er102    9.997   1_655     S
Er101     V529    10.004   .     S
Er102     Er97    9.997   1_554     S
Er102     Er101    9.997   1_455     S
Er102     V309    10.004   .     S
Er103     Er108    9.997   1_565     S
Er103     Er104    9.997   .     S
Er103     V226    10.004   .     S
Er104     Er107    9.997   .     S
Er104     V505    10.004   .     S
Er105     Er108    9.997   .     S
Er105     Er106    9.997   .     S
Er105     V335    10.004   .     S
Er106     Er107    9.997   1_545     S
Er106     V544    10.004   .     S
Er107     Er106    9.997   1_565     S
Er107     V273    10.004   .     S
Er108     Er103    9.997   1_545     S
Er108     V521    10.004   .     S
Er109     Er114    9.997   .     S
Er109     Er110    9.997   .     S
Er109     V555    10.004   .     S
Er110     Er111    9.997   .     S
Er110     V198    10.004   .     S
Er111     Er112    9.997   .     S
Er111     V420    10.004   .     S
Er112     Er113    9.997   .     S
Er112     V200    10.004   .     S
Er113     Er114    9.997   .     S
Er113     V399    10.004   .     S
Er114     V368    10.004   .     S
Er115     Er116    9.997   .     S
Er115     Er117    9.997   .     S
Er115     V485    10.004   .     S
Er116     Er118    9.997   1_655     S
Er116     V371    10.004   .     S
Er117     Er119    9.997   1_655     S
Er117     V237    10.004   .     S
Er118     Er116    9.997   1_455     S
Er118     Er120    9.997   .     S
Er118     V557    10.004   .     S
Er119     Er117    9.997   1_455     S
Er119     Er120    9.997   .     S
Er119     V566    10.004   .     S
Er120     V366    10.004   .     S
Er121     Er126    9.997   1_655     S
Er121     Er122    9.997   .     S
Er121     V251    10.004   .     S
Er122     Er125    9.997   .     S
Er122     V518    10.004   .     S
Er123     Er126    9.997   .     S
Er123     Er124    9.997   .     S
Er123     V236    10.004   .     S
Er124     Er125    9.997   1_455     S
Er124     V545    10.004   .     S
Er125     Er124    9.997   1_655     S
Er125     V356    10.004   .     S
Er126     Er121    9.997   1_455     S
Er126     V533    10.004   .     S
Er127     Er130    9.997   .     S
Er127     Er128    9.997   .     S
Er127     V286    10.004   .     S
Er128     Er132    9.997   1_655     S
Er128     V389    10.004   .     S
Er129     Er132    9.997   .     S
Er129     Er131    9.997   .     S
Er129     V484    10.004   .     S
Er130     Er131    9.997   1_655     S
Er130     V519    10.004   .     S
Er131     Er130    9.997   1_455     S
Er131     V223    10.004   .     S
Er132     Er128    9.997   1_455     S
Er132     V235    10.004   .     S
Er133     Er138    9.997   .     S
Er133     Er134    9.997   .     S
Er133     V367    10.004   .     S
Er134     Er135    9.997   .     S
Er134     V386    10.004   .     S
Er135     Er136    9.997   .     S
Er135     V211    10.004   .     S
Er136     Er137    9.997   .     S
Er136     V471    10.004   .     S
Er137     Er138    9.997   .     S
Er137     V191    10.004   .     S
Er138     V492    10.004   .     S
Er139     Er144    9.997   1_556     S
Er139     Er140    9.997   .     S
Er139     V190    10.004   .     S
Er140     Er142    9.997   .     S
Er140     V421    10.004   .     S
Er141     Er143    9.997   .     S
Er141     Er142    9.997   1_554     S
Er141     V385    10.004   .     S
Er142     Er141    9.997   1_556     S
Er142     V260    10.004   .     S
Er143     Er144    9.997   .     S
Er143     V294    10.004   .     S
Er144     Er139    9.997   1_554     S
Er144     V410    10.004   .     S
Er145     Er149    9.997   .     S
Er145     Er146    9.997   .     S
Er145     V433    10.004   .     S
Er146     Er147    9.997   .     S
Er146     V215    10.004   .     S
Er147     Er148    9.997   .     S
Er147     V569    10.004   .     S
Er148     Er150    9.997   .     S
Er148     V203    10.004   .     S
Er149     Er150    9.997   .     S
Er149     V369    10.004   .     S
Er150     V449    10.004   .     S
Er151     Er156    9.997   1_565     S
Er151     Er152    9.997   .     S
Er151     V187    10.004   .     S
Er152     Er154    9.997   .     S
Er152     V469    10.004   .     S
Er153     Er155    9.997   .     S
Er153     Er154    9.997   1_545     S
Er153     V397    10.004   .     S
Er154     Er153    9.997   1_565     S
Er154     V343    10.004   .     S
Er155     Er156    9.997   .     S
Er155     V270    10.004   .     S
Er156     Er151    9.997   1_545     S
Er156     V458    10.004   .     S
Er157     Er159    9.997   1_655     S
Er157     Er162    9.997   1_556     S
Er157     V344    10.004   .     S
Er158     Er160    9.997   1_556     S
Er158     Er159    9.997   1_565     S
Er158     V283    10.004   .     S
Er159     Er157    9.997   1_455     S
Er159     Er158    9.997   1_545     S
Er159     V509    10.004   .     S
Er160     Er158    9.997   1_554     S
Er160     Er161    9.997   1_455     S
Er160     V520    10.004   .     S
Er161     Er162    9.997   1_565     S
Er161     Er160    9.997   1_655     S
Er161     V259    10.004   .     S
Er162     Er157    9.997   1_554     S
Er162     Er161    9.997   1_545     S
Er162     V531    10.004   .     S
Er163     Er168    9.997   1_655     S
Er163     Er164    9.997   .     S
Er163     V189    10.004   .     S
Er164     Er166    9.997   .     S
Er164     V553    10.004   .     S
Er165     Er167    9.997   .     S
Er165     Er166    9.997   1_455     S
Er165     V493    10.004   .     S
Er166     Er165    9.997   1_655     S
Er166     V284    10.004   .     S
Er167     Er168    9.997   .     S
Er167     V354    10.004   .     S
Er168     Er163    9.997   1_455     S
Er168     V482    10.004   .     S
Er169     Er170    9.997   .     S
Er169     Er173    9.997   1_554     S
Er169     V263    10.004   .     S
Er170     Er172    9.997   1_565     S
Er170     V432    10.004   .     S
Er171     Er172    9.997   1_556     S
Er171     Er174    9.997   .     S
Er171     V507    10.004   .     S
Er172     Er170    9.997   1_545     S
Er172     Er171    9.997   1_554     S
Er172     V274    10.004   .     S
Er173     Er174    9.997   1_565     S
Er173     Er169    9.997   1_556     S
Er173     V459    10.004   .     S
Er174     Er173    9.997   1_545     S
Er174     V298    10.004   .     S
Er175     Er180    9.997   .     S
Er175     Er176    9.997   .     S
Er175     V576    10.004   .     S
Er176     Er177    9.997   .     S
Er176     V322    10.004   .     S
Er177     Er178    9.997   .     S
Er177     V448    10.004   .     S
Er178     Er179    9.997   .     S
Er178     V332    10.004   .     S
Er179     Er180    9.997   .     S
Er179     V543    10.004   .     S
Er180     V358    10.004   .     S
Er181     Er182    9.997   .     S
Er181     Er183    9.997   .     S
Er181     V227    10.004   .     S
Er182     Er184    9.997   .     S
Er182     V568    10.004   .     S
Er183     Er186    9.997   .     S
Er183     V437    10.004   .     S
Er184     Er185    9.997   .     S
Er184     V238    10.004   .     S
Er185     Er186    9.997   .     S
Er185     V542    10.004   .     S
Er186     V311    10.004   .     S
V187     Ti197    10.002   .     S
V187     V260    10.004   .     S
V188     Ti196    10.002   .     S
V188     V211    10.004   .     S
V189     Ti193    10.002   .     S
V189     V343    10.004   .     S
V190     Ti195    10.002   .     S
V190     V284    10.004   .     S
V191     Ti192    10.002   .     S
V191     V368    10.004   .     S
Ti192     Ti193    9.989   .     S
Ti192     Ti195    10.0   .     S
Ti193     Ti196    10.0   .     S
Ti194     Ti195    9.989   .     S
Ti194     Ti197    10.0   .     S
Ti194     V198    10.002   .     S
Ti196     Ti197    9.989   .     S
V198     V199    10.004   .     S
V199     Ti209    10.002   .     S
V200     Ti206    10.002   .     S
V200     V369    10.004   .     S
V201     Ti207    10.002   .     S
V201     V296    10.004   .     S
V202     Ti204    10.002   .     S
V202     V320    10.004   .     S
V203     Ti205    10.002   .     S
V203     V212    10.004   .     S
Ti204     Ti205    9.989   .     S
Ti204     Ti206    10.0   .     S
Ti205     Ti208    10.0   .     S
Ti206     Ti207    9.989   .     S
Ti207     Ti209    10.0   .     S
Ti208     Ti209    9.989   .     S
Ti208     V210    10.002   .     S
V210     V318    10.004   .     S
V211     Ti219    10.002   .     S
V212     Ti220    10.002   .     S
V213     Ti221    10.002   .     S
V213     V334    10.004   .     S
V214     Ti216    10.002   .     S
V214     V224    10.004   .     S
V215     Ti217    10.002   .     S
V215     V367    10.004   .     S
Ti216     Ti217    9.989   .     S
Ti216     Ti220    10.0   .     S
Ti217     Ti218    10.0   .     S
Ti218     Ti219    9.989   .     S
Ti218     V222    10.002   .     S
Ti219     Ti221    10.0   .     S
Ti220     Ti221    9.989   .     S
V222     V282    10.004   .     S
V223     Ti230    10.002   .     S
V223     V285    10.004   .     S
V224     Ti233    10.002   .     S
V225     Ti228    10.002   .     S
V225     V311    10.004   .     S
V226     Ti231    10.002   .     S
V226     V342    10.004   .     S
V227     Ti232    10.002   .     S
V227     V235    10.004   .     S
Ti228     Ti229    9.989   .     S
Ti228     Ti233    10.0   .     S
Ti229     Ti230    10.0   .     S
Ti229     V234    10.002   .     S
Ti230     Ti231    9.989   .     S
Ti231     Ti232    10.0   .     S
Ti232     Ti233    9.989   .     S
V234     V273    10.004   .     S
V235     Ti243    10.002   .     S
V236     Ti245    10.002   .     S
V236     V366    10.004   .     S
V237     Ti242    10.002   .     S
V237     V370    10.004   .     S
V238     Ti244    10.002   .     S
V238     V309    10.004   .     S
V239     Ti241    10.002   .     S
V239     V286    10.004   .     S
Ti240     Ti241    9.989   .     S
Ti240     Ti244    10.0   1_655     S
Ti240     V246    10.002   .     S
Ti241     Ti242    10.0   .     S
Ti242     Ti243    9.989   1_655     S
Ti243     Ti242    9.989   1_455     S
Ti243     Ti245    10.0   .     S
Ti244     Ti245    9.989   .     S
Ti244     Ti240    10.0   1_455     S
V246     V251    10.004   .     S
V247     Ti257    10.002   .     S
V247     V356    10.004   .     S
V248     Ti252    10.002   .     S
V248     V295    10.004   .     S
V249     Ti254    10.002   .     S
V249     V261    10.004   .     S
V250     Ti253    10.002   .     S
V250     V378    10.004   .     S
V251     Ti255    10.002   .     S
Ti252     Ti253    9.989   .     S
Ti252     Ti255    10.0   .     S
Ti253     Ti256    10.0   .     S
Ti254     Ti255    9.989   .     S
Ti254     Ti257    10.0   .     S
Ti256     Ti257    9.989   .     S
Ti256     V258    10.002   .     S
V258     V271    10.004   .     S
V259     Ti268    10.002   .     S
V259     V294    10.004   .     S
V260     Ti267    10.002   .     S
V261     Ti269    10.002   .     S
V262     Ti264    10.002   .     S
V262     V298    10.004   .     S
V263     Ti266    10.002   .     S
V263     V272    10.004   .     S
Ti264     Ti265    9.989   .     S
Ti264     Ti267    10.0   1_545     S
Ti265     Ti269    10.0   1_556     S
Ti265     V270    10.002   .     S
Ti266     Ti267    9.989   1_554     S
Ti266     Ti268    10.0   .     S
Ti267     Ti264    10.0   1_565     S
Ti267     Ti266    9.989   1_556     S
Ti268     Ti269    9.989   1_565     S
Ti269     Ti268    9.989   1_545     S
Ti269     Ti265    10.0   1_554     S
V270     V344    10.004   .     S
V271     Ti279    10.002   .     S
V272     Ti277    10.002   .     S
V273     Ti280    10.002   .     S
V274     Ti281    10.002   .     S
V274     V297    10.004   .     S
V275     Ti278    10.002   .     S
V275     V335    10.004   .     S
Ti276     Ti277    9.989   .     S
Ti276     Ti279    10.0   1_565     S
Ti276     V282    10.002   .     S
Ti277     Ti280    10.0   .     S
Ti278     Ti279    9.989   .     S
Ti278     Ti281    10.0   .     S
Ti279     Ti276    10.0   1_545     S
Ti280     Ti281    9.989   1_565     S
Ti281     Ti280    9.989   1_545     S
V283     Ti292    10.002   .     S
V283     V354    10.004   .     S
V284     Ti290    10.002   .     S
V285     Ti293    10.002   .     S
V286     Ti288    10.002   .     S
V287     Ti291    10.002   .     S
V287     V307    10.004   .     S
Ti288     Ti289    9.989   .     S
Ti288     Ti290    10.0   1_554     S
Ti289     Ti293    10.0   1_655     S
Ti289     V294    10.002   .     S
Ti290     Ti288    10.0   1_556     S
Ti290     Ti291    9.989   1_655     S
Ti291     Ti290    9.989   1_455     S
Ti291     Ti292    10.0   .     S
Ti292     Ti293    9.989   1_556     S
Ti293     Ti292    9.989   1_554     S
Ti293     Ti289    10.0   1_455     S
V295     Ti303    10.002   .     S
V296     Ti302    10.002   .     S
V297     Ti301    10.002   .     S
V298     Ti304    10.002   .     S
V299     Ti300    10.002   .     S
V299     V310    10.004   .     S
Ti300     Ti301    9.989   .     S
Ti300     Ti303    10.0   .     S
Ti301     Ti305    10.0   1_554     S
Ti302     Ti303    9.989   1_556     S
Ti302     Ti304    10.0   .     S
Ti303     Ti302    9.989   1_554     S
Ti304     Ti305    9.989   .     S
Ti305     Ti301    10.0   1_556     S
Ti305     V306    10.002   .     S
V306     V323    10.004   .     S
V307     Ti314    10.002   .     S
V308     Ti312    10.002   .     S
V308     V330    10.004   .     S
V309     Ti313    10.002   .     S
V310     Ti316    10.002   .     S
V311     Ti317    10.002   .     S
Ti312     Ti313    9.989   1_556     S
Ti312     Ti314    10.0   .     S
Ti313     Ti312    9.989   1_554     S
Ti313     Ti316    10.0   .     S
Ti314     Ti315    9.989   .     S
Ti315     Ti317    10.0   1_556     S
Ti315     V318    10.002   .     S
Ti316     Ti317    9.989   .     S
Ti317     Ti315    10.0   1_554     S
V319     Ti328    10.002   .     S
V319     V345    10.004   .     S
V320     Ti325    10.002   .     S
V321     Ti326    10.002   .     S
V321     V358    10.004   .     S
V321     Er384    10.004   .     S
V322     Ti324    10.002   .     S
V322     V333    10.004   .     S
V323     Ti329    10.002   .     S
Ti324     Ti325    9.989   .     S
Ti324     Ti329    10.0   .     S
Ti325     Ti326    10.0   .     S
Ti326     Ti327    9.989   .     S
Ti327     Ti328    10.0   .     S
Ti327     V330    10.002   .     S
Ti328     Ti329    9.989   .     S
V331     Ti337    10.002   .     S
V331     V346    10.004   .     S
V332     Ti340    10.002   .     S
V332     V357    10.004   .     S
V333     Ti339    10.002   .     S
V334     Ti338    10.002   .     S
V335     Ti341    10.002   .     S
Ti336     Ti337    9.989   .     S
Ti336     Ti340    10.0   1_565     S
Ti336     V342    10.002   .     S
Ti337     Ti338    10.0   .     S
Ti338     Ti339    9.989   1_565     S
Ti339     Ti338    9.989   1_545     S
Ti339     Ti341    10.0   .     S
Ti340     Ti341    9.989   .     S
Ti340     Ti336    10.0   1_545     S
V343     Ti350    10.002   .     S
V344     Ti352    10.002   .     S
V345     Ti353    10.002   .     S
V345     Er381    10.004   .     S
V346     Ti348    10.002   .     S
V347     Ti351    10.002   .     S
V347     V355    10.004   .     S
Ti348     Ti349    9.989   .     S
Ti348     Ti350    10.0   1_455     S
Ti349     Ti353    10.0   1_565     S
Ti349     V354    10.002   .     S
Ti350     Ti348    10.0   1_655     S
Ti350     Ti351    9.989   1_565     S
Ti351     Ti350    9.989   1_545     S
Ti351     Ti352    10.0   .     S
Ti352     Ti353    9.989   1_655     S
Ti353     Ti352    9.989   1_455     S
Ti353     Ti349    10.0   1_545     S
V355     Ti363    10.002   .     S
V355     Er382    10.004   .     S
V356     Ti360    10.002   .     S
V357     Ti361    10.002   .     S
V358     Ti365    10.002   .     S
V359     Ti362    10.002   .     S
V359     V371    10.004   .     S
Ti360     Ti361    9.989   1_655     S
Ti360     Ti363    10.0   .     S
Ti361     Ti360    9.989   1_455     S
Ti361     Ti364    10.0   .     S
Ti362     Ti363    9.989   .     S
Ti362     Ti365    10.0   1_655     S
Ti364     Ti365    9.989   .     S
Ti364     V366    10.002   .     S
Ti365     Ti362    10.0   1_455     S
V367     Ti374    10.002   .     S
V368     Ti377    10.002   .     S
V369     Ti373    10.002   .     S
V370     Ti375    10.002   .     S
V371     Ti376    10.002   .     S
Ti372     Ti373    9.989   .     S
Ti372     Ti374    10.0   .     S
Ti372     V378    10.002   .     S
Ti373     Ti376    10.0   .     S
Ti374     Ti375    9.989   .     S
Ti375     Ti377    10.0   .     S
Ti376     Ti377    9.989   .     S
Er379     Er382    9.997   .     S
Er379     Er381    9.997   1_655     S
Er379     V400    10.004   .     S
Er380     Er381    9.997   .     S
Er380     Er384    9.997   .     S
Er380     V540    10.004   .     S
Er381     Er379    9.997   1_455     S
Er382     Er383    9.997   .     S
Er383     Er384    9.997   1_655     S
Er383     V556    10.004   .     S
Er384     Er383    9.997   1_455     S
V385     Ti394    10.002   .     S
V385     V422    10.004   .     S
V386     Ti393    10.002   .     S
V386     V472    10.004   .     S
V387     Ti392    10.002   .     S
V387     V434    10.004   .     S
V388     Ti395    10.002   .     S
V388     V519    10.004   .     S
V389     Ti391    10.002   .     S
V389     V492    10.004   .     S
Ti390     Ti391    9.989   .     S
Ti390     Ti395    10.0   .     S
Ti390     V396    10.002   .     S
Ti391     Ti392    10.0   .     S
Ti392     Ti393    9.989   .     S
Ti393     Ti394    10.0   .     S
Ti394     Ti395    9.989   .     S
V396     V410    10.004   .     S
V397     Ti406    10.002   .     S
V397     V470    10.004   .     S
V398     Ti404    10.002   .     S
V398     V445    10.004   .     S
V399     Ti405    10.002   .     S
V399     V556    10.004   .     S
V400     Ti407    10.002   .     S
V400     V530    10.004   .     S
V401     Ti402    10.002   .     S
V401     V420    10.004   .     S
Ti402     Ti403    9.989   .     S
Ti402     Ti404    10.0   .     S
Ti403     Ti407    10.0   .     S
Ti403     V408    10.002   .     S
Ti404     Ti405    9.989   .     S
Ti405     Ti406    10.0   .     S
Ti406     Ti407    9.989   .     S
V408     V458    10.004   .     S
V409     Ti414    10.002   .     S
V409     V435    10.004   .     S
V410     Ti419    10.002   .     S
V411     Ti418    10.002   .     S
V411     V555    10.004   .     S
V412     Ti415    10.002   .     S
V412     V529    10.004   .     S
V413     Ti416    10.002   .     S
V413     V421    10.004   .     S
Ti414     Ti415    9.989   .     S
Ti414     Ti417    10.0   1_554     S
Ti415     Ti419    10.0   .     S
Ti416     Ti417    9.989   .     S
Ti416     Ti418    10.0   .     S
Ti417     Ti414    10.0   1_556     S
Ti417     V420    10.002   .     S
Ti418     Ti419    9.989   1_556     S
Ti419     Ti418    9.989   1_554     S
V421     Ti430    10.002   .     S
V422     Ti426    10.002   .     S
V423     Ti428    10.002   .     S
V423     V496    10.004   .     S
V424     Ti431    10.002   .     S
V424     V459    10.004   .     S
V425     Ti429    10.002   .     S
V425     V436    10.004   .     S
Ti426     Ti427    9.989   .     S
Ti426     Ti431    10.0   1_554     S
Ti427     Ti429    10.0   .     S
Ti427     V432    10.002   .     S
Ti428     Ti429    9.989   1_556     S
Ti428     Ti430    10.0   .     S
Ti429     Ti428    9.989   1_554     S
Ti430     Ti431    9.989   .     S
Ti431     Ti426    10.0   1_556     S
V432     V516    10.004   .     S
V433     Ti442    10.002   .     S
V433     V456    10.004   .     S
V434     Ti443    10.002   .     S
V435     Ti440    10.002   .     S
V436     Ti439    10.002   .     S
V437     Ti438    10.002   .     S
V437     V569    10.004   .     S
Ti438     Ti439    9.989   .     S
Ti438     Ti443    10.0   .     S
Ti439     Ti441    10.0   .     S
Ti440     Ti441    9.989   .     S
Ti440     Ti442    10.0   .     S
Ti441     V444    10.002   .     S
Ti442     Ti443    9.989   .     S
V444     V542    10.004   .     S
V445     Ti450    10.002   .     S
V446     Ti452    10.002   .     S
V446     V457    10.004   .     S
V447     Ti454    10.002   .     S
V447     V480    10.004   .     S
V448     Ti453    10.002   .     S
V448     V552    10.004   .     S
V449     Ti451    10.002   .     S
V449     V576    10.004   .     S
Ti450     Ti451    9.989   .     S
Ti450     Ti455    10.0   .     S
Ti451     Ti452    10.0   .     S
Ti452     Ti453    9.989   .     S
Ti453     Ti454    10.0   .     S
Ti454     Ti455    9.989   .     S
Ti455     V456    10.002   .     S
V457     Ti462    10.002   .     S
V458     Ti467    10.002   .     S
V459     Ti466    10.002   .     S
V460     Ti463    10.002   .     S
V460     V507    10.004   .     S
V461     Ti464    10.002   .     S
V461     V469    10.004   .     S
Ti462     Ti463    9.989   .     S
Ti462     Ti465    10.0   1_545     S
Ti463     Ti467    10.0   .     S
Ti464     Ti465    9.989   .     S
Ti464     Ti466    10.0   .     S
Ti465     Ti462    10.0   1_565     S
Ti465     V468    10.002   .     S
Ti466     Ti467    9.989   1_565     S
Ti467     Ti466    9.989   1_545     S
V468     V504    10.004   .     S
V469     Ti478    10.002   .     S
V470     Ti475    10.002   .     S
V471     Ti479    10.002   .     S
V471     V483    10.004   .     S
V472     Ti476    10.002   .     S
V473     Ti474    10.002   .     S
V473     V528    10.004   .     S
Ti474     Ti475    9.989   .     S
Ti474     Ti477    10.0   .     S
Ti475     Ti479    10.0   1_545     S
Ti476     Ti477    9.989   1_565     S
Ti476     Ti478    10.0   .     S
Ti477     Ti476    9.989   1_545     S
Ti477     V480    10.002   .     S
Ti478     Ti479    9.989   .     S
Ti479     Ti475    10.0   1_565     S
V481     Ti486    10.002   .     S
V481     V566    10.004   .     S
V482     Ti491    10.002   .     S
V482     V497    10.004   .     S
V483     Ti490    10.002   .     S
V484     Ti487    10.002   .     S
V484     V517    10.004   .     S
V485     Ti488    10.002   .     S
V485     V553    10.004   .     S
Ti486     Ti487    9.989   .     S
Ti486     Ti489    10.0   1_455     S
Ti487     Ti491    10.0   .     S
Ti488     Ti489    9.989   .     S
Ti488     Ti490    10.0   .     S
Ti489     Ti486    10.0   1_655     S
Ti489     V492    10.002   .     S
Ti490     Ti491    9.989   1_655     S
Ti491     Ti490    9.989   1_455     S
V493     Ti498    10.002   .     S
V493     V554    10.004   .     S
V494     Ti502    10.002   .     S
V494     V565    10.004   .     S
V495     Ti499    10.002   .     S
V495     V506    10.004   .     S
V496     Ti503    10.002   .     S
V497     Ti500    10.002   .     S
Ti498     Ti499    9.989   .     S
Ti498     Ti503    10.0   .     S
Ti499     Ti500    10.0   .     S
Ti500     Ti501    9.989   .     S
Ti501     Ti502    10.0   .     S
Ti501     V504    10.002   .     S
Ti502     Ti503    9.989   .     S
V505     Ti512    10.002   .     S
V505     V520    10.004   .     S
V506     Ti514    10.002   .     S
V507     Ti510    10.002   .     S
V508     Ti511    10.002   .     S
V508     V544    10.004   .     S
V509     Ti515    10.002   .     S
V509     V532    10.004   .     S
Ti510     Ti511    9.989   1_556     S
Ti510     Ti515    10.0   .     S
Ti511     Ti510    9.989   1_554     S
Ti511     Ti513    10.0   1_545     S
Ti512     Ti513    9.989   .     S
Ti512     Ti514    10.0   1_554     S
Ti513     Ti511    10.0   1_565     S
Ti513     V516    10.002   .     S
Ti514     Ti512    10.0   1_556     S
Ti514     Ti515    9.989   1_565     S
Ti515     Ti514    9.989   1_545     S
V517     Ti522    10.002   .     S
V518     Ti526    10.002   .     S
V518     V531    10.004   .     S
V519     Ti524    10.002   .     S
V520     Ti525    10.002   .     S
V521     Ti523    10.002   .     S
V521     V545    10.004   .     S
Ti522     Ti523    9.989   1_565     S
Ti522     Ti525    10.0   .     S
Ti523     Ti522    9.989   1_545     S
Ti523     Ti527    10.0   1_455     S
Ti524     Ti525    9.989   1_655     S
Ti524     Ti526    10.0   1_565     S
Ti525     Ti524    9.989   1_455     S
Ti526     Ti527    9.989   .     S
Ti526     Ti524    10.0   1_545     S
Ti527     Ti523    10.0   1_655     S
Ti527     V528    10.002   .     S
V529     Ti538    10.002   .     S
V530     Ti534    10.002   .     S
V531     Ti535    10.002   .     S
V532     Ti537    10.002   .     S
V533     Ti539    10.002   .     S
V533     V541    10.004   .     S
Ti534     Ti535    9.989   1_556     S
Ti534     Ti537    10.0   1_655     S
Ti535     Ti534    9.989   1_554     S
Ti535     Ti538    10.0   .     S
Ti536     Ti537    9.989   .     S
Ti536     Ti539    10.0   1_556     S
Ti536     V540    10.002   .     S
Ti537     Ti534    10.0   1_455     S
Ti538     Ti539    9.989   1_655     S
Ti539     Ti538    9.989   1_455     S
Ti539     Ti536    10.0   1_554     S
V540     V564    10.004   .     S
V541     Ti550    10.002   .     S
V542     Ti551    10.002   .     S
V543     Ti546    10.002   .     S
V543     V568    10.004   .     S
V544     Ti548    10.002   .     S
V545     Ti547    10.002   .     S
Ti546     Ti547    9.989   .     S
Ti546     Ti550    10.0   .     S
Ti547     Ti549    10.0   .     S
Ti548     Ti549    9.989   .     S
Ti548     Ti551    10.0   .     S
Ti549     V552    10.002   .     S
Ti550     Ti551    9.989   .     S
V553     Ti560    10.002   .     S
V554     Ti563    10.002   .     S
V555     Ti561    10.002   .     S
V556     Ti558    10.002   .     S
V557     Ti559    10.002   .     S
V557     V567    10.004   .     S
Ti558     Ti559    9.989   1_655     S
Ti558     Ti560    10.0   .     S
Ti559     Ti558    9.989   1_455     S
Ti559     Ti562    10.0   .     S
Ti560     Ti561    9.989   .     S
Ti561     Ti563    10.0   1_655     S
Ti562     Ti563    9.989   .     S
Ti562     V564    10.002   .     S
Ti563     Ti561    10.0   1_455     S
V565     Ti571    10.002   .     S
V566     Ti573    10.002   .     S
V567     Ti574    10.002   .     S
V568     Ti572    10.002   .     S
V569     Ti570    10.002   .     S
Ti570     Ti571    9.989   .     S
Ti570     Ti573    10.0   .     S
Ti571     Ti575    10.0   .     S
Ti572     Ti573    9.989   .     S
Ti572     Ti574    10.0   .     S
Ti574     Ti575    9.989   .     S
Ti575     V576    10.002   .     S
