data_crs
_audit_creation_date              2020-02-04
_audit_creation_method            'Pymatgen'
_symmetry_space_group_name_H-M    'P1'
_symmetry_Int_Tables_number       1
loop_
_symmetry_equiv_pos_as_xyz
  x,y,z
_cell_length_a                    28.2843
_cell_length_b                    28.2843
_cell_length_c                    28.2843
_cell_angle_alpha                 90.0
_cell_angle_beta                 90.0
_cell_angle_gamma                 90.0
loop_
_atom_site_label
_atom_site_type_symbol
_atom_site_fract_x
_atom_site_fract_y
_atom_site_fract_z
V1     V     0.0   0.0   0.0
V2     V     0.0   0.25   0.25
V3     V     0.75   0.25   0.5
V4     V     0.75   0.0   0.75
V5     V     0.25   0.0   0.25
V6     V     0.0   0.5   0.5
V7     V     0.5   0.25   0.75
V8     V     0.75   0.75   0.0
V9     V     0.25   0.25   0.0
V10     V     0.75   0.5   0.25
V11     V     0.5   0.0   0.5
V12     V     0.0   0.75   0.75
V13     V     0.5   0.75   0.25
V14     V     0.25   0.75   0.5
V15     V     0.25   0.5   0.75
V16     V     0.5   0.5   0.0
loop_
_geom_bond_atom_site_label_1
_geom_bond_atom_site_label_2
_geom_bond_distance
_geom_bond_site_symmetry_2
_ccdc_geom_bond_type
V1     V2    10.0   .     S
V1     V4    10.0   1_454     S
V1     V5    10.0   .     S
V1     V12    10.0   1_544     S
V1     V9    10.0   .     S
V1     V8    10.0   1_445     S
V2     V3    10.0   1_455     S
V2     V6    10.0   .     S
V2     V9    10.0   .     S
V2     V10    10.0   1_455     S
V2     V5    10.0   .     S
V3     V2    10.0   1_655     S
V3     V4    10.0   .     S
V3     V7    10.0   .     S
V3     V10    10.0   .     S
V3     V6    10.0   1_655     S
V3     V11    10.0   .     S
V4     V1    10.0   1_656     S
V4     V8    10.0   1_546     S
V4     V11    10.0   .     S
V4     V7    10.0   .     S
V4     V12    10.0   1_645     S
V5     V13    10.0   1_545     S
V5     V14    10.0   1_545     S
V5     V9    10.0   .     S
V5     V11    10.0   .     S
V6     V3    10.0   1_455     S
V6     V12    10.0   .     S
V6     V14    10.0   .     S
V6     V10    10.0   1_455     S
V6     V15    10.0   .     S
V7     V15    10.0   .     S
V7     V9    10.0   1_556     S
V7     V11    10.0   .     S
V7     V16    10.0   1_556     S
V8     V4    10.0   1_564     S
V8     V12    10.0   1_654     S
V8     V1    10.0   1_665     S
V8     V10    10.0   .     S
V8     V13    10.0   .     S
V8     V16    10.0   .     S
V9     V16    10.0   .     S
V9     V15    10.0   1_554     S
V9     V7    10.0   1_554     S
V10     V13    10.0   .     S
V10     V2    10.0   1_655     S
V10     V6    10.0   1_655     S
V10     V16    10.0   .     S
V11     V14    10.0   1_545     S
V11     V13    10.0   1_545     S
V12     V1    10.0   1_566     S
V12     V15    10.0   .     S
V12     V14    10.0   .     S
V12     V8    10.0   1_456     S
V12     V4    10.0   1_465     S
V13     V5    10.0   1_565     S
V13     V14    10.0   .     S
V13     V11    10.0   1_565     S
V13     V16    10.0   .     S
V14     V11    10.0   1_565     S
V14     V5    10.0   1_565     S
V14     V15    10.0   .     S
V15     V9    10.0   1_556     S
V15     V16    10.0   1_556     S
V16     V15    10.0   1_554     S
V16     V7    10.0   1_554     S
