data_dna
_audit_creation_date              2020-02-04
_audit_creation_method            'Pymatgen'
_symmetry_space_group_name_H-M    'P1'
_symmetry_Int_Tables_number       1
loop_
_symmetry_equiv_pos_as_xyz
  x,y,z
_cell_length_a                    48.9898
_cell_length_b                    48.9898
_cell_length_c                    48.9898
_cell_angle_alpha                 90.0
_cell_angle_beta                 90.0
_cell_angle_gamma                 90.0
loop_
_atom_site_label
_atom_site_type_symbol
_atom_site_fract_x
_atom_site_fract_y
_atom_site_fract_z
Ti1     Ti     0.6667   0.6667   0.9167
Ti2     Ti     0.9167   0.6667   0.6667
Ti3     Ti     0.6667   0.9167   0.6667
Er4     Er     0.75   0.75   0.75
Ti5     Ti     0.3333   0.3333   0.9167
Ti6     Ti     0.9167   0.3333   0.3333
Ti7     Ti     0.3333   0.9167   0.3333
Ti8     Ti     0.8333   0.8333   0.4167
Ti9     Ti     0.8333   0.8333   0.5833
Ti10     Ti     0.8333   0.4167   0.8333
Ti11     Ti     0.8333   0.5833   0.8333
Ti12     Ti     0.1667   0.8333   0.4167
Ti13     Ti     0.1667   0.8333   0.5833
V14     V     0.0   0.75   0.5
Ti15     Ti     0.3333   0.6667   0.9167
Ti16     Ti     0.3333   0.9167   0.6667
Er17     Er     0.25   0.75   0.75
Ti18     Ti     0.0833   0.6667   0.6667
V19     V     0.0   0.5   0.75
Ti20     Ti     0.1667   0.4167   0.8333
Ti21     Ti     0.1667   0.5833   0.8333
Ti22     Ti     0.4167   0.8333   0.8333
Ti23     Ti     0.5833   0.8333   0.8333
Ti24     Ti     0.0833   0.6667   0.3333
Er25     Er     0.25   0.75   0.25
Ti26     Ti     0.3333   0.6667   0.0833
V27     V     0.25   0.5   0.0
V28     V     0.0   0.5   0.25
Ti29     Ti     0.1667   0.4167   0.1667
Ti30     Ti     0.8333   0.4167   0.1667
Ti31     Ti     0.8333   0.5833   0.1667
V32     V     0.75   0.5   0.0
Ti33     Ti     0.6667   0.9167   0.3333
Ti34     Ti     0.9167   0.6667   0.3333
Er35     Er     0.75   0.75   0.25
Ti36     Ti     0.6667   0.6667   0.0833
V37     V     0.5   0.75   0.0
Ti38     Ti     0.4167   0.8333   0.1667
Ti39     Ti     0.5833   0.8333   0.1667
Ti40     Ti     0.6667   0.3333   0.0833
Er41     Er     0.75   0.25   0.25
Ti42     Ti     0.6667   0.0833   0.3333
V43     V     0.5   0.0   0.25
V44     V     0.5   0.25   0.0
Ti45     Ti     0.4167   0.1667   0.1667
Ti46     Ti     0.4167   0.1667   0.8333
Ti47     Ti     0.5833   0.1667   0.8333
V48     V     0.5   0.0   0.75
Ti49     Ti     0.6667   0.3333   0.9167
Ti50     Ti     0.9167   0.3333   0.6667
Er51     Er     0.75   0.25   0.75
Ti52     Ti     0.6667   0.0833   0.6667
V53     V     0.75   0.0   0.5
Ti54     Ti     0.8333   0.1667   0.4167
Ti55     Ti     0.8333   0.1667   0.5833
Ti56     Ti     0.3333   0.0833   0.6667
Er57     Er     0.25   0.25   0.75
V58     V     0.25   0.0   0.5
V59     V     0.0   0.25   0.5
Ti60     Ti     0.1667   0.1667   0.4167
Ti61     Ti     0.0833   0.3333   0.6667
Ti62     Ti     0.1667   0.1667   0.5833
Ti63     Ti     0.5833   0.1667   0.1667
Ti64     Ti     0.1667   0.5833   0.1667
Ti65     Ti     0.3333   0.3333   0.0833
Ti66     Ti     0.3333   0.0833   0.3333
Ti67     Ti     0.0833   0.3333   0.3333
Er68     Er     0.25   0.25   0.25
loop_
_geom_bond_atom_site_label_1
_geom_bond_atom_site_label_2
_geom_bond_distance
_geom_bond_site_symmetry_2
_ccdc_geom_bond_type
Ti1     Er4    10.0   .     S
Ti1     V32    10.0   1_556     S
Ti1     V37    10.0   1_556     S
Ti2     Er4    10.0   .     S
Ti2     V14    10.0   1_655     S
Ti2     V19    10.0   1_655     S
Ti3     Er4    10.0   .     S
Ti3     V48    10.0   1_565     S
Ti3     V53    10.0   1_565     S
Er4     Ti23    10.0   .     S
Er4     Ti11    10.0   .     S
Er4     Ti9    10.0   .     S
Ti5     Er57    10.0   .     S
Ti5     V27    10.0   1_556     S
Ti5     V44    10.0   1_556     S
Ti6     Er41    10.0   .     S
Ti6     V28    10.0   1_655     S
Ti6     V59    10.0   1_655     S
Ti7     Er25    10.0   .     S
Ti7     V43    10.0   1_565     S
Ti7     V58    10.0   1_565     S
Ti8     V14    10.0   1_655     S
Ti8     V53    10.0   1_565     S
Ti8     Er35    10.0   .     S
Ti9     V14    10.0   1_655     S
Ti9     V53    10.0   1_565     S
Ti10     V32    10.0   1_556     S
Ti10     V19    10.0   1_655     S
Ti10     Er51    10.0   .     S
Ti11     V32    10.0   1_556     S
Ti11     V19    10.0   1_655     S
Ti12     V58    10.0   1_565     S
Ti12     V14    10.0   .     S
Ti12     Er25    10.0   .     S
Ti13     V58    10.0   1_565     S
Ti13     V14    10.0   .     S
Ti13     Er17    10.0   .     S
V14     Ti8    10.0   1_455     S
V14     Ti9    10.0   1_455     S
V14     Ti34    10.0   1_455     S
V14     Ti24    10.0   .     S
V14     Ti18    10.0   .     S
V14     Ti2    10.0   1_455     S
Ti15     Er17    10.0   .     S
Ti15     V27    10.0   1_556     S
Ti15     V37    10.0   1_556     S
Ti16     Er17    10.0   .     S
Ti16     V48    10.0   1_565     S
Ti16     V58    10.0   1_565     S
Er17     Ti22    10.0   .     S
Er17     Ti18    10.0   .     S
Er17     Ti21    10.0   .     S
Ti18     V19    10.0   .     S
V19     Ti11    10.0   1_455     S
V19     Ti10    10.0   1_455     S
V19     Ti2    10.0   1_455     S
V19     Ti20    10.0   .     S
V19     Ti21    10.0   .     S
V19     Ti61    10.0   .     S
V19     Ti50    10.0   1_455     S
Ti20     V27    10.0   1_556     S
Ti20     Er57    10.0   .     S
Ti21     V27    10.0   1_556     S
Ti22     V48    10.0   1_565     S
Ti22     V37    10.0   1_556     S
Ti23     V48    10.0   1_565     S
Ti23     V37    10.0   1_556     S
Ti24     V28    10.0   .     S
Ti24     Er25    10.0   .     S
Er25     Ti38    10.0   .     S
Er25     Ti26    10.0   .     S
Er25     Ti64    10.0   .     S
Ti26     V27    10.0   .     S
Ti26     V37    10.0   .     S
V27     Ti21    10.0   1_554     S
V27     Ti20    10.0   1_554     S
V27     Ti15    10.0   1_554     S
V27     Ti65    10.0   .     S
V27     Ti5    10.0   1_554     S
V27     Ti29    10.0   .     S
V27     Ti64    10.0   .     S
V28     Ti34    10.0   1_455     S
V28     Ti64    10.0   .     S
V28     Ti29    10.0   .     S
V28     Ti6    10.0   1_455     S
V28     Ti67    10.0   .     S
V28     Ti30    10.0   1_455     S
V28     Ti31    10.0   1_455     S
Ti29     Er68    10.0   .     S
Ti30     V28    10.0   1_655     S
Ti30     V32    10.0   .     S
Ti30     Er41    10.0   .     S
Ti31     V28    10.0   1_655     S
Ti31     V32    10.0   .     S
Ti31     Er35    10.0   .     S
V32     Ti10    10.0   1_554     S
V32     Ti11    10.0   1_554     S
V32     Ti49    10.0   1_554     S
V32     Ti40    10.0   .     S
V32     Ti36    10.0   .     S
V32     Ti1    10.0   1_554     S
Ti33     Er35    10.0   .     S
Ti33     V43    10.0   1_565     S
Ti33     V53    10.0   1_565     S
Ti34     V14    10.0   1_655     S
Ti34     V28    10.0   1_655     S
Ti34     Er35    10.0   .     S
Er35     Ti36    10.0   .     S
Er35     Ti39    10.0   .     S
Ti36     V37    10.0   .     S
V37     Ti23    10.0   1_554     S
V37     Ti22    10.0   1_554     S
V37     Ti1    10.0   1_554     S
V37     Ti38    10.0   .     S
V37     Ti39    10.0   .     S
V37     Ti15    10.0   1_554     S
Ti38     V43    10.0   1_565     S
Ti39     V43    10.0   1_565     S
Ti40     V44    10.0   .     S
Ti40     Er41    10.0   .     S
Er41     Ti54    10.0   .     S
Er41     Ti42    10.0   .     S
Er41     Ti63    10.0   .     S
Ti42     V43    10.0   .     S
Ti42     V53    10.0   .     S
V43     Ti39    10.0   1_545     S
V43     Ti38    10.0   1_545     S
V43     Ti33    10.0   1_545     S
V43     Ti66    10.0   .     S
V43     Ti7    10.0   1_545     S
V43     Ti45    10.0   .     S
V43     Ti63    10.0   .     S
V44     Ti49    10.0   1_554     S
V44     Ti63    10.0   .     S
V44     Ti45    10.0   .     S
V44     Ti5    10.0   1_554     S
V44     Ti65    10.0   .     S
V44     Ti46    10.0   1_554     S
V44     Ti47    10.0   1_554     S
Ti45     Er68    10.0   .     S
Ti46     V44    10.0   1_556     S
Ti46     V48    10.0   .     S
Ti46     Er57    10.0   .     S
Ti47     V44    10.0   1_556     S
Ti47     V48    10.0   .     S
Ti47     Er51    10.0   .     S
V48     Ti22    10.0   1_545     S
V48     Ti23    10.0   1_545     S
V48     Ti16    10.0   1_545     S
V48     Ti56    10.0   .     S
V48     Ti52    10.0   .     S
V48     Ti3    10.0   1_545     S
Ti49     V32    10.0   1_556     S
Ti49     V44    10.0   1_556     S
Ti49     Er51    10.0   .     S
Ti50     V19    10.0   1_655     S
Ti50     Er51    10.0   .     S
Ti50     V59    10.0   1_655     S
Er51     Ti52    10.0   .     S
Er51     Ti55    10.0   .     S
Ti52     V53    10.0   .     S
V53     Ti9    10.0   1_545     S
V53     Ti8    10.0   1_545     S
V53     Ti3    10.0   1_545     S
V53     Ti54    10.0   .     S
V53     Ti55    10.0   .     S
V53     Ti33    10.0   1_545     S
Ti54     V59    10.0   1_655     S
Ti55     V59    10.0   1_655     S
Ti56     V58    10.0   .     S
Ti56     Er57    10.0   .     S
Er57     Ti61    10.0   .     S
Er57     Ti62    10.0   .     S
V58     Ti12    10.0   1_545     S
V58     Ti13    10.0   1_545     S
V58     Ti16    10.0   1_545     S
V58     Ti7    10.0   1_545     S
V58     Ti66    10.0   .     S
V58     Ti62    10.0   .     S
V58     Ti60    10.0   .     S
V59     Ti55    10.0   1_455     S
V59     Ti54    10.0   1_455     S
V59     Ti60    10.0   .     S
V59     Ti62    10.0   .     S
V59     Ti67    10.0   .     S
V59     Ti6    10.0   1_455     S
V59     Ti50    10.0   1_455     S
V59     Ti61    10.0   .     S
Ti60     Er68    10.0   .     S
Ti65     Er68    10.0   .     S
Ti66     Er68    10.0   .     S
Ti67     Er68    10.0   .     S
