data_dnga
_audit_creation_date              2020-02-04
_audit_creation_method            'Pymatgen'
_symmetry_space_group_name_H-M    'P1'
_symmetry_Int_Tables_number       1
loop_
_symmetry_equiv_pos_as_xyz
  x,y,z
_cell_length_a                    192.6593
_cell_length_b                    192.6593
_cell_length_c                    192.6593
_cell_angle_alpha                 90.0
_cell_angle_beta                 90.0
_cell_angle_gamma                 90.0
loop_
_atom_site_label
_atom_site_type_symbol
_atom_site_fract_x
_atom_site_fract_y
_atom_site_fract_z
Ti1     Ti     0.954   0.9024   0.9391
Ti2     Ti     0.9391   0.9024   0.954
Ti3     Ti     0.9024   0.954   0.9391
Ti4     Ti     0.9024   0.9391   0.954
Ti5     Ti     0.9391   0.954   0.9024
Ti6     Ti     0.954   0.9391   0.9024
Ti7     Ti     0.8109   0.8476   0.954
Ti8     Ti     0.796   0.8476   0.9391
Ti9     Ti     0.8476   0.8109   0.954
Ti10     Ti     0.8476   0.796   0.9391
Ti11     Ti     0.8109   0.796   0.9024
Ti12     Ti     0.796   0.8109   0.9024
Ti13     Ti     0.9024   0.796   0.8109
Ti14     Ti     0.9024   0.8109   0.796
Ti15     Ti     0.954   0.8476   0.8109
Ti16     Ti     0.9391   0.8476   0.796
Ti17     Ti     0.954   0.8109   0.8476
Ti18     Ti     0.9391   0.796   0.8476
Ce19     Ce     0.8974   0.8893   0.926
Ce20     Ce     0.8893   0.8974   0.926
Ce21     Ce     0.926   0.8893   0.8974
Ce22     Ce     0.926   0.8974   0.8893
Ce23     Ce     0.8974   0.926   0.8893
Ce24     Ce     0.8893   0.926   0.8974
Ce25     Ce     0.926   0.8526   0.8607
Ce26     Ce     0.926   0.8607   0.8526
Ce27     Ce     0.8893   0.824   0.8526
Ce28     Ce     0.8974   0.824   0.8607
Ce29     Ce     0.8893   0.8526   0.824
Ce30     Ce     0.8974   0.8607   0.824
Ce31     Ce     0.8526   0.8607   0.926
Ce32     Ce     0.8607   0.8526   0.926
Ce33     Ce     0.824   0.8607   0.8974
Ce34     Ce     0.824   0.8526   0.8893
Ce35     Ce     0.8526   0.824   0.8893
Ce36     Ce     0.8607   0.824   0.8974
Ce37     Ce     0.8526   0.926   0.8607
Ce38     Ce     0.8607   0.926   0.8526
Ce39     Ce     0.8526   0.8893   0.824
Ce40     Ce     0.8607   0.8974   0.824
Ce41     Ce     0.824   0.8893   0.8526
Ce42     Ce     0.824   0.8974   0.8607
Ti43     Ti     0.8476   0.9391   0.796
Ti44     Ti     0.8476   0.954   0.8109
Ti45     Ti     0.8109   0.954   0.8476
Ti46     Ti     0.796   0.9391   0.8476
Ti47     Ti     0.796   0.9024   0.8109
Ti48     Ti     0.8109   0.9024   0.796
Er49     Er     0.9462   0.9811   0.9462
Er50     Er     0.9811   0.9462   0.9462
Er51     Er     0.9462   0.9462   0.9811
Er52     Er     0.8038   0.9811   0.8038
Er53     Er     0.9811   0.8038   0.8038
Er54     Er     0.8038   0.8038   0.9811
Er55     Er     0.7689   0.9462   0.8038
Er56     Er     0.9462   0.7689   0.8038
Er57     Er     0.8038   0.7689   0.9462
Er58     Er     0.7689   0.8038   0.9462
Er59     Er     0.8038   0.9462   0.7689
Er60     Er     0.9462   0.8038   0.7689
V61     V     0.7745   0.7378   0.9755
V62     V     0.7378   0.7745   0.9755
V63     V     0.7745   0.7745   0.0122
V64     V     0.7255   0.7255   0.9878
V65     V     0.7622   0.7255   0.0245
V66     V     0.7255   0.7622   0.0245
V67     V     0.4755   0.4755   0.0122
V68     V     0.5122   0.4755   0.9755
V69     V     0.4755   0.5122   0.9755
V70     V     0.5245   0.5245   0.9878
V71     V     0.4878   0.5245   0.0245
V72     V     0.5245   0.4878   0.0245
V73     V     0.4755   0.9755   0.5122
V74     V     0.4755   0.0122   0.4755
V75     V     0.5122   0.9755   0.4755
V76     V     0.5245   0.9878   0.5245
V77     V     0.4878   0.0245   0.5245
V78     V     0.5245   0.0245   0.4878
V79     V     0.9755   0.4755   0.5122
V80     V     0.0122   0.4755   0.4755
V81     V     0.9755   0.5122   0.4755
V82     V     0.9878   0.5245   0.5245
V83     V     0.0245   0.5245   0.4878
V84     V     0.0245   0.4878   0.5245
V85     V     0.9755   0.7378   0.7745
V86     V     0.9755   0.7745   0.7378
V87     V     0.0122   0.7745   0.7745
V88     V     0.9878   0.7255   0.7255
V89     V     0.0245   0.7622   0.7255
V90     V     0.0245   0.7255   0.7622
V91     V     0.7745   0.9755   0.7378
V92     V     0.7378   0.9755   0.7745
V93     V     0.7745   0.0122   0.7745
V94     V     0.7255   0.9878   0.7255
V95     V     0.7622   0.0245   0.7255
V96     V     0.7255   0.0245   0.7622
V97     V     0.4755   0.7378   0.2745
V98     V     0.4755   0.7745   0.2378
V99     V     0.5122   0.7745   0.2745
V100     V     0.5245   0.7255   0.2622
V101     V     0.4878   0.7255   0.2255
V102     V     0.5245   0.7622   0.2255
Ti103     Ti     0.6524   0.546   0.1891
Ti104     Ti     0.6524   0.5609   0.204
Ti105     Ti     0.704   0.5609   0.1524
Ti106     Ti     0.6891   0.546   0.1524
Ti107     Ti     0.6891   0.5976   0.204
Ti108     Ti     0.704   0.5976   0.1891
Ti109     Ti     0.546   0.5609   0.0976
Ti110     Ti     0.5609   0.546   0.0976
Ti111     Ti     0.5609   0.5976   0.046
Ti112     Ti     0.546   0.5976   0.0609
Ti113     Ti     0.5976   0.5609   0.046
Ti114     Ti     0.5976   0.546   0.0609
Ti115     Ti     0.5609   0.6524   0.204
Ti116     Ti     0.546   0.6524   0.1891
Ti117     Ti     0.5976   0.6891   0.2039
Ti118     Ti     0.5976   0.704   0.1891
Ti119     Ti     0.5609   0.704   0.1524
Ti120     Ti     0.546   0.6891   0.1524
Ce121     Ce     0.6107   0.574   0.1026
Ce122     Ce     0.6026   0.574   0.1107
Ce123     Ce     0.574   0.6026   0.1107
Ce124     Ce     0.574   0.6107   0.1026
Ce125     Ce     0.6107   0.6026   0.074
Ce126     Ce     0.6026   0.6107   0.074
Ce127     Ce     0.6026   0.6393   0.176
Ce128     Ce     0.6107   0.6474   0.176
Ce129     Ce     0.574   0.6393   0.1474
Ce130     Ce     0.574   0.6474   0.1393
Ce131     Ce     0.6026   0.676   0.1393
Ce132     Ce     0.6107   0.676   0.1474
Ce133     Ce     0.6393   0.6474   0.074
Ce134     Ce     0.6474   0.6393   0.074
Ce135     Ce     0.676   0.6474   0.1107
Ce136     Ce     0.676   0.6393   0.1026
Ce137     Ce     0.6393   0.676   0.1026
Ce138     Ce     0.6474   0.676   0.1107
Ce139     Ce     0.6393   0.574   0.1474
Ce140     Ce     0.6474   0.574   0.1393
Ce141     Ce     0.676   0.6026   0.1393
Ce142     Ce     0.676   0.6107   0.1474
Ce143     Ce     0.6393   0.6026   0.176
Ce144     Ce     0.6474   0.6107   0.176
Ti145     Ti     0.704   0.6891   0.0976
Ti146     Ti     0.6891   0.704   0.0976
Ti147     Ti     0.6524   0.704   0.0609
Ti148     Ti     0.6524   0.6891   0.046
Ti149     Ti     0.704   0.6524   0.0609
Ti150     Ti     0.6891   0.6524   0.046
Er151     Er     0.6962   0.5538   0.2311
Er152     Er     0.5189   0.6962   0.1962
Er153     Er     0.5538   0.7311   0.1962
Er154     Er     0.6962   0.6962   0.0189
Er155     Er     0.5538   0.5538   0.0189
Er156     Er     0.5189   0.5538   0.0538
Er157     Er     0.5538   0.5189   0.0538
Er158     Er     0.5538   0.6962   0.2311
Er159     Er     0.7311   0.5538   0.1962
Er160     Er     0.7311   0.6962   0.0538
Er161     Er     0.6962   0.7311   0.0538
Er162     Er     0.6962   0.5189   0.1962
V163     V     0.2745   0.4755   0.7378
V164     V     0.2745   0.5122   0.7745
V165     V     0.2378   0.4755   0.7745
V166     V     0.2622   0.5245   0.7255
V167     V     0.2255   0.4878   0.7255
V168     V     0.2255   0.5245   0.7622
Ti169     Ti     0.0976   0.5609   0.546
Ti170     Ti     0.0976   0.546   0.5609
Ti171     Ti     0.046   0.5609   0.5976
Ti172     Ti     0.0609   0.546   0.5976
Ti173     Ti     0.0609   0.5976   0.546
Ti174     Ti     0.046   0.5976   0.5609
Ti175     Ti     0.2039   0.6524   0.5609
Ti176     Ti     0.1891   0.6524   0.546
Ti177     Ti     0.1524   0.704   0.5609
Ti178     Ti     0.1524   0.6891   0.546
Ti179     Ti     0.1891   0.704   0.5976
Ti180     Ti     0.204   0.6891   0.5976
Ti181     Ti     0.1891   0.546   0.6524
Ti182     Ti     0.204   0.5609   0.6524
Ti183     Ti     0.1891   0.5976   0.704
Ti184     Ti     0.2039   0.5976   0.6891
Ti185     Ti     0.1524   0.546   0.6891
Ti186     Ti     0.1524   0.5609   0.704
Ce187     Ce     0.1474   0.574   0.6393
Ce188     Ce     0.1393   0.574   0.6474
Ce189     Ce     0.176   0.6107   0.6474
Ce190     Ce     0.176   0.6026   0.6393
Ce191     Ce     0.1474   0.6107   0.676
Ce192     Ce     0.1393   0.6026   0.676
Ce193     Ce     0.1107   0.574   0.6026
Ce194     Ce     0.1026   0.574   0.6107
Ce195     Ce     0.074   0.6026   0.6107
Ce196     Ce     0.074   0.6107   0.6026
Ce197     Ce     0.1107   0.6026   0.574
Ce198     Ce     0.1026   0.6107   0.574
Ce199     Ce     0.074   0.6393   0.6474
Ce200     Ce     0.074   0.6474   0.6393
Ce201     Ce     0.1026   0.6393   0.676
Ce202     Ce     0.1107   0.6474   0.676
Ce203     Ce     0.1026   0.676   0.6393
Ce204     Ce     0.1107   0.676   0.6474
Ce205     Ce     0.176   0.6393   0.6026
Ce206     Ce     0.176   0.6474   0.6107
Ce207     Ce     0.1474   0.6393   0.574
Ce208     Ce     0.1393   0.6474   0.574
Ce209     Ce     0.1474   0.676   0.6107
Ce210     Ce     0.1393   0.676   0.6026
Ti211     Ti     0.0976   0.704   0.6891
Ti212     Ti     0.0976   0.6891   0.704
Ti213     Ti     0.046   0.6524   0.6891
Ti214     Ti     0.0609   0.6524   0.704
Ti215     Ti     0.0609   0.704   0.6524
Ti216     Ti     0.046   0.6891   0.6524
Er217     Er     0.2311   0.6962   0.5538
Er218     Er     0.2311   0.5538   0.6962
Er219     Er     0.1962   0.5538   0.7311
Er220     Er     0.1962   0.6962   0.5189
Er221     Er     0.0538   0.7311   0.6962
Er222     Er     0.0189   0.6962   0.6962
Er223     Er     0.0189   0.5538   0.5538
Er224     Er     0.0538   0.5189   0.5538
Er225     Er     0.1962   0.7311   0.5538
Er226     Er     0.0538   0.5538   0.5189
Er227     Er     0.1962   0.5189   0.6962
Er228     Er     0.0538   0.6962   0.7311
V229     V     0.2745   0.7378   0.4755
V230     V     0.2745   0.7745   0.5122
V231     V     0.2378   0.7745   0.4755
V232     V     0.2622   0.7255   0.5245
V233     V     0.2255   0.7255   0.4878
V234     V     0.2255   0.7622   0.5245
Ti235     Ti     0.454   0.9024   0.4391
Ti236     Ti     0.4391   0.9024   0.454
Ti237     Ti     0.4024   0.954   0.4391
Ti238     Ti     0.4024   0.9391   0.454
Ti239     Ti     0.4391   0.954   0.4024
Ti240     Ti     0.454   0.9391   0.4024
Ti241     Ti     0.4391   0.8476   0.296
Ti242     Ti     0.454   0.8476   0.3109
Ti243     Ti     0.454   0.8109   0.3476
Ti244     Ti     0.4391   0.796   0.3476
Ti245     Ti     0.4024   0.8109   0.296
Ti246     Ti     0.4024   0.796   0.3109
Ti247     Ti     0.296   0.9024   0.3109
Ti248     Ti     0.3109   0.9024   0.2961
Ti249     Ti     0.2961   0.9391   0.3476
Ti250     Ti     0.3109   0.954   0.3476
Ti251     Ti     0.3476   0.9391   0.296
Ti252     Ti     0.3476   0.954   0.3109
Ce253     Ce     0.324   0.8526   0.3893
Ce254     Ce     0.324   0.8607   0.3974
Ce255     Ce     0.3607   0.8526   0.426
Ce256     Ce     0.3526   0.8607   0.426
Ce257     Ce     0.3607   0.824   0.3974
Ce258     Ce     0.3526   0.824   0.3893
Ce259     Ce     0.3974   0.926   0.3893
Ce260     Ce     0.3893   0.926   0.3974
Ce261     Ce     0.3974   0.8893   0.426
Ce262     Ce     0.3893   0.8974   0.426
Ce263     Ce     0.426   0.8893   0.3974
Ce264     Ce     0.426   0.8974   0.3893
Ce265     Ce     0.426   0.8526   0.3607
Ce266     Ce     0.426   0.8607   0.3526
Ce267     Ce     0.3893   0.8526   0.324
Ce268     Ce     0.3974   0.8607   0.324
Ce269     Ce     0.3893   0.824   0.3526
Ce270     Ce     0.3974   0.824   0.3607
Ce271     Ce     0.3607   0.926   0.3526
Ce272     Ce     0.3526   0.926   0.3607
Ce273     Ce     0.324   0.8974   0.3607
Ce274     Ce     0.324   0.8893   0.3526
Ce275     Ce     0.3607   0.8974   0.324
Ce276     Ce     0.3526   0.8893   0.324
Ti277     Ti     0.3109   0.8476   0.454
Ti278     Ti     0.296   0.8476   0.4391
Ti279     Ti     0.2961   0.8109   0.4024
Ti280     Ti     0.3109   0.796   0.4024
Ti281     Ti     0.3476   0.8109   0.454
Ti282     Ti     0.3476   0.796   0.4391
Er283     Er     0.2689   0.8038   0.4462
Er284     Er     0.4462   0.9811   0.4462
Er285     Er     0.4462   0.8038   0.2689
Er286     Er     0.2689   0.9462   0.3038
Er287     Er     0.3038   0.9811   0.3038
Er288     Er     0.4462   0.7689   0.3038
Er289     Er     0.3038   0.9462   0.2689
Er290     Er     0.3038   0.8038   0.4811
Er291     Er     0.4811   0.8038   0.3038
Er292     Er     0.4811   0.9462   0.4462
Er293     Er     0.4462   0.9462   0.4811
Er294     Er     0.3038   0.7689   0.4462
V295     V     0.2255   0.9878   0.2255
V296     V     0.2622   0.0245   0.2255
V297     V     0.2255   0.0245   0.2622
V298     V     0.2745   0.0122   0.2745
V299     V     0.2745   0.9755   0.2378
V300     V     0.2378   0.9755   0.2745
V301     V     0.9755   0.0122   0.9755
V302     V     0.9755   0.9755   0.0122
V303     V     0.0122   0.9755   0.9755
V304     V     0.0245   0.0245   0.9878
V305     V     0.0245   0.9878   0.0245
V306     V     0.9878   0.0245   0.0245
V307     V     0.4755   0.2745   0.7378
V308     V     0.5122   0.2745   0.7745
V309     V     0.4755   0.2378   0.7745
V310     V     0.5245   0.2622   0.7255
V311     V     0.4878   0.2255   0.7255
V312     V     0.5245   0.2255   0.7622
Ti313     Ti     0.0976   0.046   0.0609
Ti314     Ti     0.0976   0.0609   0.046
Ti315     Ti     0.0609   0.0976   0.046
Ti316     Ti     0.046   0.0976   0.0609
Ti317     Ti     0.046   0.0609   0.0976
Ti318     Ti     0.0609   0.046   0.0976
Ti319     Ti     0.1524   0.204   0.0609
Ti320     Ti     0.1524   0.1891   0.046
Ti321     Ti     0.1891   0.204   0.0976
Ti322     Ti     0.204   0.1891   0.0976
Ti323     Ti     0.1891   0.1524   0.046
Ti324     Ti     0.2039   0.1524   0.0609
Ti325     Ti     0.0976   0.204   0.1891
Ti326     Ti     0.0976   0.1891   0.2039
Ti327     Ti     0.046   0.1524   0.1891
Ti328     Ti     0.0609   0.1524   0.204
Ti329     Ti     0.046   0.1891   0.1524
Ti330     Ti     0.0609   0.204   0.1524
Ce331     Ce     0.1026   0.1107   0.074
Ce332     Ce     0.1107   0.1026   0.074
Ce333     Ce     0.1107   0.074   0.1026
Ce334     Ce     0.1026   0.074   0.1107
Ce335     Ce     0.074   0.1026   0.1107
Ce336     Ce     0.074   0.1107   0.1026
Ce337     Ce     0.074   0.1474   0.1393
Ce338     Ce     0.074   0.1393   0.1474
Ce339     Ce     0.1026   0.1393   0.176
Ce340     Ce     0.1107   0.1474   0.176
Ce341     Ce     0.1107   0.176   0.1474
Ce342     Ce     0.1026   0.176   0.1393
Ce343     Ce     0.176   0.1107   0.1474
Ce344     Ce     0.176   0.1026   0.1393
Ce345     Ce     0.1474   0.074   0.1393
Ce346     Ce     0.1393   0.074   0.1474
Ce347     Ce     0.1474   0.1107   0.176
Ce348     Ce     0.1393   0.1026   0.176
Ce349     Ce     0.176   0.1393   0.1026
Ce350     Ce     0.176   0.1474   0.1107
Ce351     Ce     0.1474   0.1393   0.074
Ce352     Ce     0.1393   0.1474   0.074
Ce353     Ce     0.1474   0.176   0.1107
Ce354     Ce     0.1393   0.176   0.1026
Ti355     Ti     0.1891   0.046   0.1524
Ti356     Ti     0.204   0.0609   0.1524
Ti357     Ti     0.1524   0.046   0.1891
Ti358     Ti     0.1524   0.0609   0.204
Ti359     Ti     0.2039   0.0976   0.1891
Ti360     Ti     0.1891   0.0976   0.204
Er361     Er     0.1962   0.0538   0.2311
Er362     Er     0.2311   0.1962   0.0538
Er363     Er     0.1962   0.1962   0.0189
Er364     Er     0.0189   0.1962   0.1962
Er365     Er     0.0538   0.2311   0.1962
Er366     Er     0.2311   0.0538   0.1962
Er367     Er     0.0189   0.0538   0.0538
Er368     Er     0.0538   0.0189   0.0538
Er369     Er     0.0538   0.0538   0.0189
Er370     Er     0.1962   0.2311   0.0538
Er371     Er     0.1962   0.0189   0.1962
Er372     Er     0.0538   0.1962   0.2311
Ti373     Ti     0.4391   0.454   0.9024
Ti374     Ti     0.454   0.4391   0.9024
Ti375     Ti     0.454   0.4024   0.9391
Ti376     Ti     0.4391   0.4024   0.954
Ti377     Ti     0.4024   0.4391   0.954
Ti378     Ti     0.4024   0.454   0.9391
Ti379     Ti     0.2961   0.3109   0.9024
Ti380     Ti     0.3109   0.296   0.9024
Ti381     Ti     0.296   0.3476   0.9391
Ti382     Ti     0.3109   0.3476   0.954
Ti383     Ti     0.3476   0.3109   0.954
Ti384     Ti     0.3476   0.296   0.9391
Ti385     Ti     0.2961   0.4391   0.8476
Ti386     Ti     0.3109   0.454   0.8476
Ti387     Ti     0.3109   0.4024   0.796
Ti388     Ti     0.296   0.4024   0.8109
Ti389     Ti     0.3476   0.4391   0.796
Ti390     Ti     0.3476   0.454   0.8109
Ce391     Ce     0.324   0.3974   0.8607
Ce392     Ce     0.324   0.3893   0.8526
Ce393     Ce     0.3607   0.426   0.8526
Ce394     Ce     0.3526   0.426   0.8607
Ce395     Ce     0.3607   0.3974   0.824
Ce396     Ce     0.3526   0.3893   0.824
Ce397     Ce     0.3607   0.3526   0.926
Ce398     Ce     0.3526   0.3607   0.926
Ce399     Ce     0.3607   0.324   0.8974
Ce400     Ce     0.3526   0.324   0.8893
Ce401     Ce     0.324   0.3526   0.8893
Ce402     Ce     0.324   0.3607   0.8974
Ce403     Ce     0.3974   0.324   0.8607
Ce404     Ce     0.3893   0.324   0.8526
Ce405     Ce     0.3893   0.3526   0.824
Ce406     Ce     0.3974   0.3607   0.824
Ce407     Ce     0.426   0.3607   0.8526
Ce408     Ce     0.426   0.3526   0.8607
Ce409     Ce     0.3893   0.3974   0.926
Ce410     Ce     0.3974   0.3893   0.926
Ce411     Ce     0.426   0.3893   0.8974
Ce412     Ce     0.426   0.3974   0.8893
Ce413     Ce     0.3974   0.426   0.8893
Ce414     Ce     0.3893   0.426   0.8974
Ti415     Ti     0.4391   0.296   0.8476
Ti416     Ti     0.454   0.3109   0.8476
Ti417     Ti     0.4024   0.3109   0.796
Ti418     Ti     0.4024   0.296   0.8109
Ti419     Ti     0.4391   0.3476   0.796
Ti420     Ti     0.454   0.3476   0.8109
Er421     Er     0.2689   0.3038   0.9462
Er422     Er     0.3038   0.3038   0.9811
Er423     Er     0.4462   0.4462   0.9811
Er424     Er     0.2689   0.4462   0.8038
Er425     Er     0.4462   0.3038   0.7689
Er426     Er     0.3038   0.4462   0.7689
Er427     Er     0.4811   0.3038   0.8038
Er428     Er     0.4462   0.4811   0.9462
Er429     Er     0.4811   0.4462   0.9462
Er430     Er     0.3038   0.4811   0.8038
Er431     Er     0.4462   0.2689   0.8038
Er432     Er     0.3038   0.2689   0.9462
V433     V     0.2255   0.2255   0.9878
V434     V     0.2255   0.2622   0.0245
V435     V     0.2622   0.2255   0.0245
V436     V     0.2745   0.2745   0.0122
V437     V     0.2378   0.2745   0.9755
V438     V     0.2745   0.2378   0.9755
V439     V     0.7378   0.4755   0.2745
V440     V     0.7745   0.5122   0.2745
V441     V     0.7745   0.4755   0.2378
V442     V     0.7255   0.5245   0.2622
V443     V     0.7255   0.4878   0.2255
V444     V     0.7622   0.5245   0.2255
V445     V     0.7378   0.2745   0.4755
V446     V     0.7745   0.2745   0.5122
V447     V     0.7745   0.2378   0.4755
V448     V     0.7255   0.2622   0.5245
V449     V     0.7255   0.2255   0.4878
V450     V     0.7622   0.2255   0.5245
Ti451     Ti     0.9024   0.4391   0.454
Ti452     Ti     0.9024   0.454   0.4391
Ti453     Ti     0.954   0.4024   0.4391
Ti454     Ti     0.9391   0.4024   0.454
Ti455     Ti     0.9391   0.454   0.4024
Ti456     Ti     0.954   0.4391   0.4024
Ti457     Ti     0.8476   0.3109   0.454
Ti458     Ti     0.8476   0.296   0.4391
Ti459     Ti     0.8109   0.296   0.4024
Ti460     Ti     0.796   0.3109   0.4024
Ti461     Ti     0.796   0.3476   0.4391
Ti462     Ti     0.8109   0.3476   0.454
Ti463     Ti     0.9024   0.296   0.3109
Ti464     Ti     0.9024   0.3109   0.296
Ti465     Ti     0.954   0.3476   0.3109
Ti466     Ti     0.9391   0.3476   0.296
Ti467     Ti     0.9391   0.296   0.3476
Ti468     Ti     0.954   0.3109   0.3476
Ce469     Ce     0.926   0.3893   0.3974
Ce470     Ce     0.926   0.3974   0.3893
Ce471     Ce     0.8893   0.3974   0.426
Ce472     Ce     0.8974   0.3893   0.426
Ce473     Ce     0.8974   0.426   0.3893
Ce474     Ce     0.8893   0.426   0.3974
Ce475     Ce     0.8526   0.324   0.3893
Ce476     Ce     0.8607   0.324   0.3974
Ce477     Ce     0.824   0.3607   0.3974
Ce478     Ce     0.824   0.3526   0.3893
Ce479     Ce     0.8526   0.3607   0.426
Ce480     Ce     0.8607   0.3526   0.426
Ce481     Ce     0.926   0.3607   0.3526
Ce482     Ce     0.926   0.3526   0.3607
Ce483     Ce     0.8974   0.324   0.3607
Ce484     Ce     0.8893   0.324   0.3526
Ce485     Ce     0.8893   0.3526   0.324
Ce486     Ce     0.8974   0.3607   0.324
Ce487     Ce     0.8526   0.426   0.3607
Ce488     Ce     0.8607   0.426   0.3526
Ce489     Ce     0.824   0.3893   0.3526
Ce490     Ce     0.824   0.3974   0.3607
Ce491     Ce     0.8526   0.3893   0.324
Ce492     Ce     0.8607   0.3974   0.324
Ti493     Ti     0.8476   0.4391   0.296
Ti494     Ti     0.8476   0.454   0.3109
Ti495     Ti     0.8109   0.4024   0.2961
Ti496     Ti     0.796   0.4024   0.3109
Ti497     Ti     0.8109   0.454   0.3476
Ti498     Ti     0.796   0.4391   0.3476
Er499     Er     0.9811   0.3038   0.3038
Er500     Er     0.9811   0.4462   0.4462
Er501     Er     0.9462   0.3038   0.2689
Er502     Er     0.7689   0.3038   0.4462
Er503     Er     0.9462   0.2689   0.3038
Er504     Er     0.8038   0.3038   0.4811
Er505     Er     0.8038   0.4462   0.2689
Er506     Er     0.9462   0.4462   0.4811
Er507     Er     0.9462   0.4811   0.4462
Er508     Er     0.8038   0.4811   0.3038
Er509     Er     0.7689   0.4462   0.3038
Er510     Er     0.8038   0.2689   0.4462
V511     V     0.0245   0.2622   0.2255
V512     V     0.9878   0.2255   0.2255
V513     V     0.0245   0.2255   0.2622
V514     V     0.0122   0.2745   0.2745
V515     V     0.9755   0.2745   0.2378
V516     V     0.9755   0.2378   0.2745
Ti517     Ti     0.5609   0.0976   0.546
Ti518     Ti     0.546   0.0976   0.5609
Ti519     Ti     0.5976   0.046   0.5609
Ti520     Ti     0.5976   0.0609   0.546
Ti521     Ti     0.546   0.0609   0.5976
Ti522     Ti     0.5609   0.046   0.5976
Ti523     Ti     0.546   0.1891   0.6524
Ti524     Ti     0.5609   0.204   0.6524
Ti525     Ti     0.5609   0.1524   0.704
Ti526     Ti     0.546   0.1524   0.6891
Ti527     Ti     0.5976   0.1891   0.704
Ti528     Ti     0.5976   0.204   0.6891
Ti529     Ti     0.6524   0.204   0.5609
Ti530     Ti     0.6524   0.1891   0.546
Ti531     Ti     0.6891   0.1524   0.546
Ti532     Ti     0.704   0.1524   0.5609
Ti533     Ti     0.704   0.1891   0.5976
Ti534     Ti     0.6891   0.204   0.5976
Ce535     Ce     0.574   0.1026   0.6107
Ce536     Ce     0.574   0.1107   0.6026
Ce537     Ce     0.6107   0.074   0.6026
Ce538     Ce     0.6026   0.074   0.6107
Ce539     Ce     0.6026   0.1107   0.574
Ce540     Ce     0.6107   0.1026   0.574
Ce541     Ce     0.574   0.1474   0.6393
Ce542     Ce     0.574   0.1393   0.6474
Ce543     Ce     0.6026   0.1393   0.676
Ce544     Ce     0.6107   0.1474   0.676
Ce545     Ce     0.6107   0.176   0.6474
Ce546     Ce     0.6026   0.176   0.6393
Ce547     Ce     0.6393   0.074   0.6474
Ce548     Ce     0.6474   0.074   0.6393
Ce549     Ce     0.676   0.1026   0.6393
Ce550     Ce     0.676   0.1107   0.6474
Ce551     Ce     0.6393   0.1026   0.676
Ce552     Ce     0.6474   0.1107   0.676
Ce553     Ce     0.6393   0.1474   0.574
Ce554     Ce     0.6474   0.1393   0.574
Ce555     Ce     0.6393   0.176   0.6026
Ce556     Ce     0.6474   0.176   0.6107
Ce557     Ce     0.676   0.1474   0.6107
Ce558     Ce     0.676   0.1393   0.6026
Ti559     Ti     0.704   0.0976   0.6891
Ti560     Ti     0.6891   0.0976   0.704
Ti561     Ti     0.704   0.0609   0.6524
Ti562     Ti     0.6891   0.046   0.6524
Ti563     Ti     0.6524   0.046   0.6891
Ti564     Ti     0.6524   0.0609   0.704
Er565     Er     0.7311   0.1962   0.5538
Er566     Er     0.5189   0.1962   0.6962
Er567     Er     0.6962   0.0189   0.6962
Er568     Er     0.5538   0.2311   0.6962
Er569     Er     0.5189   0.0538   0.5538
Er570     Er     0.5538   0.0189   0.5538
Er571     Er     0.5538   0.0538   0.5189
Er572     Er     0.6962   0.2311   0.5538
Er573     Er     0.7311   0.0538   0.6962
Er574     Er     0.6962   0.1962   0.5189
Er575     Er     0.6962   0.0538   0.7311
Er576     Er     0.5538   0.1962   0.7311
loop_
_geom_bond_atom_site_label_1
_geom_bond_atom_site_label_2
_geom_bond_distance
_geom_bond_site_symmetry_2
_ccdc_geom_bond_type
Ti1     Er50    10.002   .     S
Ti1     Ti6    9.994   .     S
Ti1     Ce21    10.001   .     S
Ti2     Er51    10.002   .     S
Ti2     Ti4    9.994   .     S
Ti2     Ce19    10.001   .     S
Ti3     Ti5    9.994   .     S
Ti3     Er49    10.002   .     S
Ti3     Ce24    10.001   .     S
Ti4     Er51    10.002   .     S
Ti4     Ce20    10.001   .     S
Ti5     Er49    10.002   .     S
Ti5     Ce23    10.001   .     S
Ti6     Er50    10.002   .     S
Ti6     Ce22    10.001   .     S
Ti7     Er54    10.002   .     S
Ti7     Ti9    9.994   .     S
Ti7     Ce31    10.001   .     S
Ti8     Er58    10.002   .     S
Ti8     Ti12    9.994   .     S
Ti8     Ce33    10.001   .     S
Ti9     Er54    10.002   .     S
Ti9     Ce32    10.001   .     S
Ti10     Ti11    9.994   .     S
Ti10     Er57    10.002   .     S
Ti10     Ce36    10.001   .     S
Ti11     Er57    10.002   .     S
Ti11     Ce35    10.001   .     S
Ti12     Er58    10.002   .     S
Ti12     Ce34    10.001   .     S
Ti13     Ti18    9.994   .     S
Ti13     Er56    10.002   .     S
Ti13     Ce27    10.001   .     S
Ti14     Er60    10.002   .     S
Ti14     Ti16    9.994   .     S
Ti14     Ce29    10.001   .     S
Ti15     Er53    10.002   .     S
Ti15     Ti17    9.994   .     S
Ti15     Ce26    10.001   .     S
Ti16     Er60    10.002   .     S
Ti16     Ce30    10.001   .     S
Ti17     Er53    10.002   .     S
Ti17     Ce25    10.001   .     S
Ti18     Er56    10.002   .     S
Ti18     Ce28    10.001   .     S
Ce19     Ce23    10.002   .     S
Ce19     Ce32    9.999   .     S
Ce20     Ce22    10.002   .     S
Ce20     Ce31    9.999   .     S
Ce21     Ce24    10.002   .     S
Ce21     Ce25    9.999   .     S
Ce22     Ce26    9.999   .     S
Ce23     Ce38    9.999   .     S
Ce24     Ce37    9.999   .     S
Ce25     Ce29    10.002   .     S
Ce26     Ce27    10.002   .     S
Ce27     Ce35    9.999   .     S
Ce28     Ce30    10.002   .     S
Ce28     Ce36    9.999   .     S
Ce29     Ce39    9.999   .     S
Ce30     Ce40    9.999   .     S
Ce31     Ce35    10.002   .     S
Ce32     Ce34    10.002   .     S
Ce33     Ce36    10.002   .     S
Ce33     Ce42    9.999   .     S
Ce34     Ce41    9.999   .     S
Ce37     Ce39    10.002   .     S
Ce37     Ti45    10.001   .     S
Ce38     Ce41    10.002   .     S
Ce38     Ti44    10.001   .     S
Ce39     Ti48    10.001   .     S
Ce40     Ce42    10.002   .     S
Ce40     Ti43    10.001   .     S
Ce41     Ti47    10.001   .     S
Ce42     Ti46    10.001   .     S
Ti43     Er59    10.002   .     S
Ti43     Ti48    9.994   .     S
Ti44     Er52    10.002   .     S
Ti44     Ti45    9.994   .     S
Ti45     Er52    10.002   .     S
Ti46     Er55    10.002   .     S
Ti46     Ti47    9.994   .     S
Ti47     Er55    10.002   .     S
Ti48     Er59    10.002   .     S
Er49     V301    10.004   1_565     S
Er50     V303    10.004   1_655     S
Er51     V302    10.004   1_556     S
Er52     V93    10.004   1_565     S
Er53     V87    10.004   1_655     S
Er54     V63    10.004   1_556     S
Er55     V92    10.004   .     S
Er56     V85    10.004   .     S
Er57     V61    10.004   .     S
Er58     V62    10.004   .     S
Er59     V91    10.004   .     S
Er60     V86    10.004   .     S
V61     V63    9.997   1_556     S
V61     V62    9.997   .     S
V61     V65    10.002   1_556     S
V61     V64    10.002   .     S
V62     V63    9.997   1_556     S
V62     V64    10.002   .     S
V62     V66    10.002   1_556     S
V63     V61    9.997   1_554     S
V63     V62    9.997   1_554     S
V63     V65    10.002   .     S
V63     V66    10.002   .     S
V63     Er54    10.004   1_554     S
V64     V66    9.997   1_556     S
V64     V65    9.997   1_556     S
V64     Er154    10.004   1_556     S
V65     V61    10.002   1_554     S
V65     V64    9.997   1_554     S
V65     V66    9.997   .     S
V65     Er160    10.004   .     S
V66     V62    10.002   1_554     S
V66     V64    9.997   1_554     S
V66     Er161    10.004   .     S
V67     V68    9.997   1_554     S
V67     V69    9.997   1_554     S
V67     V71    10.002   .     S
V67     V72    10.002   .     S
V67     Er423    10.004   1_554     S
V68     V67    9.997   1_556     S
V68     V69    9.997   .     S
V68     V70    10.002   .     S
V68     V72    10.002   1_556     S
V68     Er429    10.004   .     S
V69     V67    9.997   1_556     S
V69     V70    10.002   .     S
V69     V71    10.002   1_556     S
V69     Er428    10.004   .     S
V70     V71    9.997   1_556     S
V70     V72    9.997   1_556     S
V70     Er155    10.004   1_556     S
V71     V69    10.002   1_554     S
V71     V70    9.997   1_554     S
V71     V72    9.997   .     S
V71     Er156    10.004   .     S
V72     V68    10.002   1_554     S
V72     V70    9.997   1_554     S
V72     Er157    10.004   .     S
V73     V74    9.997   1_565     S
V73     V75    9.997   .     S
V73     V77    10.002   1_565     S
V73     V76    10.002   .     S
V73     Er293    10.004   .     S
V74     V75    9.997   1_545     S
V74     V73    9.997   1_545     S
V74     V77    10.002   .     S
V74     V78    10.002   .     S
V74     Er284    10.004   1_545     S
V75     V74    9.997   1_565     S
V75     V78    10.002   1_565     S
V75     V76    10.002   .     S
V75     Er292    10.004   .     S
V76     V78    9.997   1_565     S
V76     V77    9.997   1_565     S
V76     Er570    10.004   1_565     S
V77     V73    10.002   1_545     S
V77     V78    9.997   .     S
V77     V76    9.997   1_545     S
V77     Er569    10.004   .     S
V78     V75    10.002   1_545     S
V78     V76    9.997   1_545     S
V78     Er571    10.004   .     S
V79     V80    9.997   1_655     S
V79     V81    9.997   .     S
V79     V84    10.002   1_655     S
V79     V82    10.002   .     S
V79     Er506    10.004   .     S
V80     V79    9.997   1_455     S
V80     V81    9.997   1_455     S
V80     V84    10.002   .     S
V80     V83    10.002   .     S
V80     Er500    10.004   1_455     S
V81     V80    9.997   1_655     S
V81     V83    10.002   1_655     S
V81     V82    10.002   .     S
V81     Er507    10.004   .     S
V82     V84    9.997   1_655     S
V82     V83    9.997   1_655     S
V82     Er223    10.004   1_655     S
V83     V81    10.002   1_455     S
V83     V84    9.997   .     S
V83     V82    9.997   1_455     S
V83     Er226    10.004   .     S
V84     V79    10.002   1_455     S
V84     V82    9.997   1_455     S
V84     Er224    10.004   .     S
V85     V86    9.997   .     S
V85     V87    9.997   1_655     S
V85     V88    10.002   .     S
V85     V90    10.002   1_655     S
V86     V87    9.997   1_655     S
V86     V89    10.002   1_655     S
V86     V88    10.002   .     S
V87     V86    9.997   1_455     S
V87     V85    9.997   1_455     S
V87     V89    10.002   .     S
V87     V90    10.002   .     S
V87     Er53    10.004   1_455     S
V88     V89    9.997   1_655     S
V88     V90    9.997   1_655     S
V88     Er222    10.004   1_655     S
V89     V86    10.002   1_455     S
V89     V88    9.997   1_455     S
V89     V90    9.997   .     S
V89     Er221    10.004   .     S
V90     V85    10.002   1_455     S
V90     V88    9.997   1_455     S
V90     Er228    10.004   .     S
V91     V92    9.997   .     S
V91     V93    9.997   1_565     S
V91     V94    10.002   .     S
V91     V95    10.002   1_565     S
V92     V93    9.997   1_565     S
V92     V96    10.002   1_565     S
V92     V94    10.002   .     S
V93     V91    9.997   1_545     S
V93     V92    9.997   1_545     S
V93     V96    10.002   .     S
V93     V95    10.002   .     S
V93     Er52    10.004   1_545     S
V94     V96    9.997   1_565     S
V94     V95    9.997   1_565     S
V94     Er567    10.004   1_565     S
V95     V91    10.002   1_545     S
V95     V94    9.997   1_545     S
V95     V96    9.997   .     S
V95     Er573    10.004   .     S
V96     V92    10.002   1_545     S
V96     V94    9.997   1_545     S
V96     Er575    10.004   .     S
V97     V99    9.997   .     S
V97     V98    9.997   .     S
V97     V101    10.002   .     S
V97     V100    10.002   .     S
V97     Er288    10.004   .     S
V98     V99    9.997   .     S
V98     V101    10.002   .     S
V98     V102    10.002   .     S
V98     Er285    10.004   .     S
V99     V100    10.002   .     S
V99     V102    10.002   .     S
V99     Er291    10.004   .     S
V100     V101    9.997   .     S
V100     V102    9.997   .     S
V100     Er158    10.004   .     S
V101     V102    9.997   .     S
V101     Er152    10.004   .     S
V102     Er153    10.004   .     S
Ti103     Er162    10.002   .     S
Ti103     Ti106    9.994   .     S
Ti103     Ce139    10.001   .     S
Ti104     Er151    10.002   .     S
Ti104     Ti107    9.994   .     S
Ti104     Ce143    10.001   .     S
Ti105     Er159    10.002   .     S
Ti105     Ti108    9.994   .     S
Ti105     Ce141    10.001   .     S
Ti106     Er162    10.002   .     S
Ti106     Ce140    10.001   .     S
Ti107     Er151    10.002   .     S
Ti107     Ce144    10.001   .     S
Ti108     Er159    10.002   .     S
Ti108     Ce142    10.001   .     S
Ti109     Er156    10.002   .     S
Ti109     Ti112    9.994   .     S
Ti109     Ce123    10.001   .     S
Ti110     Er157    10.002   .     S
Ti110     Ti114    9.994   .     S
Ti110     Ce122    10.001   .     S
Ti111     Er155    10.002   .     S
Ti111     Ti113    9.994   .     S
Ti111     Ce126    10.001   .     S
Ti112     Er156    10.002   .     S
Ti112     Ce124    10.001   .     S
Ti113     Er155    10.002   .     S
Ti113     Ce125    10.001   .     S
Ti114     Er157    10.002   .     S
Ti114     Ce121    10.001   .     S
Ti115     Er158    10.002   .     S
Ti115     Ti117    9.994   .     S
Ti115     Ce127    10.001   .     S
Ti116     Er152    10.002   .     S
Ti116     Ti120    9.994   .     S
Ti116     Ce129    10.001   .     S
Ti117     Er158    10.002   .     S
Ti117     Ce128    10.001   .     S
Ti118     Er153    10.002   .     S
Ti118     Ti119    9.994   .     S
Ti118     Ce132    10.001   .     S
Ti119     Er153    10.002   .     S
Ti119     Ce131    10.001   .     S
Ti120     Er152    10.002   .     S
Ti120     Ce130    10.001   .     S
Ce121     Ce140    9.999   .     S
Ce121     Ce124    10.002   .     S
Ce122     Ce139    9.999   .     S
Ce122     Ce126    10.002   .     S
Ce123     Ce125    10.002   .     S
Ce123     Ce129    9.999   .     S
Ce124     Ce130    9.999   .     S
Ce125     Ce134    9.999   .     S
Ce126     Ce133    9.999   .     S
Ce127     Ce131    10.002   .     S
Ce127     Ce143    9.999   .     S
Ce128     Ce130    10.002   .     S
Ce128     Ce144    9.999   .     S
Ce129     Ce132    10.002   .     S
Ce131     Ce137    9.999   .     S
Ce132     Ce138    9.999   .     S
Ce133     Ce135    10.002   .     S
Ce133     Ti148    10.001   .     S
Ce134     Ce138    10.002   .     S
Ce134     Ti150    10.001   .     S
Ce135     Ce142    9.999   .     S
Ce135     Ti145    10.001   .     S
Ce136     Ce137    10.002   .     S
Ce136     Ce141    9.999   .     S
Ce136     Ti149    10.001   .     S
Ce137     Ti147    10.001   .     S
Ce138     Ti146    10.001   .     S
Ce139     Ce142    10.002   .     S
Ce140     Ce144    10.002   .     S
Ce141     Ce143    10.002   .     S
Ti145     Er160    10.002   .     S
Ti145     Ti149    9.994   .     S
Ti146     Er161    10.002   .     S
Ti146     Ti147    9.994   .     S
Ti147     Er161    10.002   .     S
Ti148     Er154    10.002   .     S
Ti148     Ti150    9.994   .     S
Ti149     Er160    10.002   .     S
Ti150     Er154    10.002   .     S
Er151     V442    10.004   .     S
Er154     V64    10.004   1_554     S
Er155     V70    10.004   1_554     S
Er159     V444    10.004   .     S
Er162     V443    10.004   .     S
V163     V164    9.997   .     S
V163     V165    9.997   .     S
V163     V166    10.002   .     S
V163     V167    10.002   .     S
V163     Er426    10.004   .     S
V164     V165    9.997   .     S
V164     V168    10.002   .     S
V164     V166    10.002   .     S
V164     Er430    10.004   .     S
V165     V168    10.002   .     S
V165     V167    10.002   .     S
V165     Er424    10.004   .     S
V166     V168    9.997   .     S
V166     V167    9.997   .     S
V166     Er218    10.004   .     S
V167     V168    9.997   .     S
V167     Er227    10.004   .     S
V168     Er219    10.004   .     S
Ti169     Er226    10.002   .     S
Ti169     Ti173    9.994   .     S
Ti169     Ce197    10.001   .     S
Ti170     Er224    10.002   .     S
Ti170     Ti172    9.994   .     S
Ti170     Ce193    10.001   .     S
Ti171     Er223    10.002   .     S
Ti171     Ti174    9.994   .     S
Ti171     Ce195    10.001   .     S
Ti172     Er224    10.002   .     S
Ti172     Ce194    10.001   .     S
Ti173     Er226    10.002   .     S
Ti173     Ce198    10.001   .     S
Ti174     Er223    10.002   .     S
Ti174     Ce196    10.001   .     S
Ti175     Er217    10.002   .     S
Ti175     Ti180    9.994   .     S
Ti175     Ce205    10.001   .     S
Ti176     Er220    10.002   .     S
Ti176     Ti178    9.994   .     S
Ti176     Ce207    10.001   .     S
Ti177     Er225    10.002   .     S
Ti177     Ti179    9.994   .     S
Ti177     Ce210    10.001   .     S
Ti178     Er220    10.002   .     S
Ti178     Ce208    10.001   .     S
Ti179     Er225    10.002   .     S
Ti179     Ce209    10.001   .     S
Ti180     Er217    10.002   .     S
Ti180     Ce206    10.001   .     S
Ti181     Er227    10.002   .     S
Ti181     Ti185    9.994   .     S
Ti181     Ce187    10.001   .     S
Ti182     Er218    10.002   .     S
Ti182     Ti184    9.994   .     S
Ti182     Ce190    10.001   .     S
Ti183     Er219    10.002   .     S
Ti183     Ti186    9.994   .     S
Ti183     Ce191    10.001   .     S
Ti184     Er218    10.002   .     S
Ti184     Ce189    10.001   .     S
Ti185     Er227    10.002   .     S
Ti185     Ce188    10.001   .     S
Ti186     Er219    10.002   .     S
Ti186     Ce192    10.001   .     S
Ce187     Ce191    10.002   .     S
Ce187     Ce193    9.999   .     S
Ce188     Ce189    10.002   .     S
Ce188     Ce194    9.999   .     S
Ce189     Ce206    9.999   .     S
Ce190     Ce205    9.999   .     S
Ce190     Ce192    10.002   .     S
Ce191     Ce202    9.999   .     S
Ce192     Ce201    9.999   .     S
Ce193     Ce196    10.002   .     S
Ce194     Ce198    10.002   .     S
Ce195     Ce199    9.999   .     S
Ce195     Ce197    10.002   .     S
Ce196     Ce200    9.999   .     S
Ce197     Ce207    9.999   .     S
Ce198     Ce208    9.999   .     S
Ce199     Ce204    10.002   .     S
Ce199     Ti213    10.001   .     S
Ce200     Ce202    10.002   .     S
Ce200     Ti216    10.001   .     S
Ce201     Ce203    10.002   .     S
Ce201     Ti214    10.001   .     S
Ce202     Ti212    10.001   .     S
Ce203     Ce210    9.999   .     S
Ce203     Ti215    10.001   .     S
Ce204     Ce209    9.999   .     S
Ce204     Ti211    10.001   .     S
Ce205     Ce210    10.002   .     S
Ce206     Ce208    10.002   .     S
Ce207     Ce209    10.002   .     S
Ti211     Er221    10.002   .     S
Ti211     Ti215    9.994   .     S
Ti212     Er228    10.002   .     S
Ti212     Ti214    9.994   .     S
Ti213     Er222    10.002   .     S
Ti213     Ti216    9.994   .     S
Ti214     Er228    10.002   .     S
Ti215     Er221    10.002   .     S
Ti216     Er222    10.002   .     S
Er217     V232    10.004   .     S
Er220     V233    10.004   .     S
Er222     V88    10.004   1_455     S
Er223     V82    10.004   1_455     S
Er225     V234    10.004   .     S
V229     V230    9.997   .     S
V229     V231    9.997   .     S
V229     V232    10.002   .     S
V229     V233    10.002   .     S
V229     Er294    10.004   .     S
V230     V231    9.997   .     S
V230     V232    10.002   .     S
V230     V234    10.002   .     S
V230     Er290    10.004   .     S
V231     V233    10.002   .     S
V231     V234    10.002   .     S
V231     Er283    10.004   .     S
V232     V233    9.997   .     S
V232     V234    9.997   .     S
V233     V234    9.997   .     S
Ti235     Ti240    9.994   .     S
Ti235     Er292    10.002   .     S
Ti235     Ce263    10.001   .     S
Ti236     Er293    10.002   .     S
Ti236     Ti238    9.994   .     S
Ti236     Ce261    10.001   .     S
Ti237     Er284    10.002   .     S
Ti237     Ti239    9.994   .     S
Ti237     Ce260    10.001   .     S
Ti238     Er293    10.002   .     S
Ti238     Ce262    10.001   .     S
Ti239     Er284    10.002   .     S
Ti239     Ce259    10.001   .     S
Ti240     Er292    10.002   .     S
Ti240     Ce264    10.001   .     S
Ti241     Er285    10.002   .     S
Ti241     Ti245    9.994   .     S
Ti241     Ce268    10.001   .     S
Ti242     Er291    10.002   .     S
Ti242     Ti243    9.994   .     S
Ti242     Ce266    10.001   .     S
Ti243     Er291    10.002   .     S
Ti243     Ce265    10.001   .     S
Ti244     Er288    10.002   .     S
Ti244     Ti246    9.994   .     S
Ti244     Ce270    10.001   .     S
Ti245     Er285    10.002   .     S
Ti245     Ce267    10.001   .     S
Ti246     Er288    10.002   .     S
Ti246     Ce269    10.001   .     S
Ti247     Er286    10.002   .     S
Ti247     Ti249    9.994   .     S
Ti247     Ce274    10.001   .     S
Ti248     Er289    10.002   .     S
Ti248     Ti251    9.994   .     S
Ti248     Ce276    10.001   .     S
Ti249     Er286    10.002   .     S
Ti249     Ce273    10.001   .     S
Ti250     Er287    10.002   .     S
Ti250     Ti252    9.994   .     S
Ti250     Ce272    10.001   .     S
Ti251     Er289    10.002   .     S
Ti251     Ce275    10.001   .     S
Ti252     Er287    10.002   .     S
Ti252     Ce271    10.001   .     S
Ce253     Ce274    9.999   .     S
Ce253     Ce255    10.002   .     S
Ce253     Ti279    10.001   .     S
Ce254     Ce273    9.999   .     S
Ce254     Ce257    10.002   .     S
Ce254     Ti278    10.001   .     S
Ce255     Ce261    9.999   .     S
Ce255     Ti281    10.001   .     S
Ce256     Ce258    10.002   .     S
Ce256     Ce262    9.999   .     S
Ce256     Ti277    10.001   .     S
Ce257     Ce270    9.999   .     S
Ce257     Ti282    10.001   .     S
Ce258     Ce269    9.999   .     S
Ce258     Ti280    10.001   .     S
Ce259     Ce271    9.999   .     S
Ce259     Ce261    10.002   .     S
Ce260     Ce272    9.999   .     S
Ce260     Ce263    10.002   .     S
Ce262     Ce264    10.002   .     S
Ce263     Ce265    9.999   .     S
Ce264     Ce266    9.999   .     S
Ce265     Ce267    10.002   .     S
Ce266     Ce269    10.002   .     S
Ce267     Ce276    9.999   .     S
Ce268     Ce270    10.002   .     S
Ce268     Ce275    9.999   .     S
Ce271     Ce274    10.002   .     S
Ce272     Ce276    10.002   .     S
Ce273     Ce275    10.002   .     S
Ti277     Er290    10.002   .     S
Ti277     Ti281    9.994   .     S
Ti278     Er283    10.002   .     S
Ti278     Ti279    9.994   .     S
Ti279     Er283    10.002   .     S
Ti280     Er294    10.002   .     S
Ti280     Ti282    9.994   .     S
Ti281     Er290    10.002   .     S
Ti282     Er294    10.002   .     S
Er284     V74    10.004   1_565     S
Er286     V300    10.004   .     S
Er287     V298    10.004   1_565     S
Er289     V299    10.004   .     S
V295     V297    9.997   1_565     S
V295     V296    9.997   1_565     S
V295     V300    10.002   .     S
V295     V299    10.002   .     S
V295     Er371    10.004   1_565     S
V296     V297    9.997   .     S
V296     V295    9.997   1_545     S
V296     V298    10.002   .     S
V296     V299    10.002   1_545     S
V296     Er366    10.004   .     S
V297     V295    9.997   1_545     S
V297     V298    10.002   .     S
V297     V300    10.002   1_545     S
V297     Er361    10.004   .     S
V298     V299    9.997   1_545     S
V298     V300    9.997   1_545     S
V298     Er287    10.004   1_545     S
V299     V296    10.002   1_565     S
V299     V298    9.997   1_565     S
V299     V300    9.997   .     S
V300     V297    10.002   1_565     S
V300     V298    9.997   1_565     S
V301     V302    9.997   1_546     S
V301     V303    9.997   1_645     S
V301     V304    10.002   1_655     S
V301     V306    10.002   1_556     S
V301     Er49    10.004   1_545     S
V302     V303    9.997   1_654     S
V302     V301    9.997   1_564     S
V302     V306    10.002   1_565     S
V302     V305    10.002   1_655     S
V302     Er51    10.004   1_554     S
V303     V302    9.997   1_456     S
V303     V301    9.997   1_465     S
V303     V304    10.002   1_565     S
V303     V305    10.002   1_556     S
V303     Er50    10.004   1_455     S
V304     V303    10.002   1_545     S
V304     V301    10.002   1_455     S
V304     V305    9.997   1_546     S
V304     V306    9.997   1_456     S
V304     Er369    10.004   1_556     S
V305     V302    10.002   1_455     S
V305     V303    10.002   1_554     S
V305     V304    9.997   1_564     S
V305     V306    9.997   1_465     S
V305     Er368    10.004   1_565     S
V306     V302    10.002   1_545     S
V306     V301    10.002   1_554     S
V306     V305    9.997   1_645     S
V306     V304    9.997   1_654     S
V306     Er367    10.004   1_655     S
V307     V308    9.997   .     S
V307     V309    9.997   .     S
V307     V310    10.002   .     S
V307     V311    10.002   .     S
V307     Er425    10.004   .     S
V308     V309    9.997   .     S
V308     V310    10.002   .     S
V308     V312    10.002   .     S
V308     Er427    10.004   .     S
V309     V311    10.002   .     S
V309     V312    10.002   .     S
V309     Er431    10.004   .     S
V310     V311    9.997   .     S
V310     V312    9.997   .     S
V310     Er568    10.004   .     S
V311     V312    9.997   .     S
V311     Er566    10.004   .     S
V312     Er576    10.004   .     S
Ti313     Er368    10.002   .     S
Ti313     Ti318    9.994   .     S
Ti313     Ce333    10.001   .     S
Ti314     Er369    10.002   .     S
Ti314     Ti315    9.994   .     S
Ti314     Ce332    10.001   .     S
Ti315     Er369    10.002   .     S
Ti315     Ce331    10.001   .     S
Ti316     Er367    10.002   .     S
Ti316     Ti317    9.994   .     S
Ti316     Ce336    10.001   .     S
Ti317     Er367    10.002   .     S
Ti317     Ce335    10.001   .     S
Ti318     Er368    10.002   .     S
Ti318     Ce334    10.001   .     S
Ti319     Ti321    9.994   .     S
Ti319     Er370    10.002   .     S
Ti319     Ce354    10.001   .     S
Ti320     Er363    10.002   .     S
Ti320     Ti323    9.994   .     S
Ti320     Ce352    10.001   .     S
Ti321     Er370    10.002   .     S
Ti321     Ce353    10.001   .     S
Ti322     Er362    10.002   .     S
Ti322     Ti324    9.994   .     S
Ti322     Ce350    10.001   .     S
Ti323     Er363    10.002   .     S
Ti323     Ce351    10.001   .     S
Ti324     Er362    10.002   .     S
Ti324     Ce349    10.001   .     S
Ti325     Er365    10.002   .     S
Ti325     Ti330    9.994   .     S
Ti325     Ce341    10.001   .     S
Ti326     Ti328    9.994   .     S
Ti326     Er372    10.002   .     S
Ti326     Ce340    10.001   .     S
Ti327     Er364    10.002   .     S
Ti327     Ti329    9.994   .     S
Ti327     Ce338    10.001   .     S
Ti328     Er372    10.002   .     S
Ti328     Ce339    10.001   .     S
Ti329     Er364    10.002   .     S
Ti329     Ce337    10.001   .     S
Ti330     Er365    10.002   .     S
Ti330     Ce342    10.001   .     S
Ce331     Ce334    10.002   .     S
Ce331     Ce352    9.999   .     S
Ce332     Ce335    10.002   .     S
Ce332     Ce351    9.999   .     S
Ce333     Ce336    10.002   .     S
Ce333     Ce345    9.999   .     S
Ce334     Ce346    9.999   .     S
Ce335     Ce338    9.999   .     S
Ce336     Ce337    9.999   .     S
Ce337     Ce340    10.002   .     S
Ce338     Ce341    10.002   .     S
Ce339     Ce342    10.002   .     S
Ce339     Ce348    9.999   .     S
Ce340     Ce347    9.999   .     S
Ce341     Ce353    9.999   .     S
Ce342     Ce354    9.999   .     S
Ce343     Ce346    10.002   .     S
Ce343     Ce350    9.999   .     S
Ce343     Ti359    10.001   .     S
Ce344     Ce348    10.002   .     S
Ce344     Ce349    9.999   .     S
Ce344     Ti356    10.001   .     S
Ce345     Ce347    10.002   .     S
Ce345     Ti355    10.001   .     S
Ce346     Ti357    10.001   .     S
Ce347     Ti360    10.001   .     S
Ce348     Ti358    10.001   .     S
Ce349     Ce354    10.002   .     S
Ce350     Ce352    10.002   .     S
Ce351     Ce353    10.002   .     S
Ti355     Ti357    9.994   .     S
Ti355     Er371    10.002   .     S
Ti356     Er366    10.002   .     S
Ti356     Ti359    9.994   .     S
Ti357     Er371    10.002   .     S
Ti358     Er361    10.002   .     S
Ti358     Ti360    9.994   .     S
Ti359     Er366    10.002   .     S
Ti360     Er361    10.002   .     S
Er362     V435    10.004   .     S
Er363     V433    10.004   1_554     S
Er364     V512    10.004   1_455     S
Er365     V511    10.004   .     S
Er367     V306    10.004   1_455     S
Er368     V305    10.004   1_545     S
Er369     V304    10.004   1_554     S
Er370     V434    10.004   .     S
Er371     V295    10.004   1_545     S
Er372     V513    10.004   .     S
Ti373     Ti378    9.994   .     S
Ti373     Er428    10.002   .     S
Ti373     Ce413    10.001   .     S
Ti374     Er429    10.002   .     S
Ti374     Ti375    9.994   .     S
Ti374     Ce412    10.001   .     S
Ti375     Er429    10.002   .     S
Ti375     Ce411    10.001   .     S
Ti376     Er423    10.002   .     S
Ti376     Ti377    9.994   .     S
Ti376     Ce410    10.001   .     S
Ti377     Er423    10.002   .     S
Ti377     Ce409    10.001   .     S
Ti378     Er428    10.002   .     S
Ti378     Ce414    10.001   .     S
Ti379     Er421    10.002   .     S
Ti379     Ti381    9.994   .     S
Ti379     Ce401    10.001   .     S
Ti380     Er432    10.002   .     S
Ti380     Ti384    9.994   .     S
Ti380     Ce400    10.001   .     S
Ti381     Er421    10.002   .     S
Ti381     Ce402    10.001   .     S
Ti382     Er422    10.002   .     S
Ti382     Ti383    9.994   .     S
Ti382     Ce398    10.001   .     S
Ti383     Er422    10.002   .     S
Ti383     Ce397    10.001   .     S
Ti384     Er432    10.002   .     S
Ti384     Ce399    10.001   .     S
Ti385     Er424    10.002   .     S
Ti385     Ti388    9.994   .     S
Ti385     Ce391    10.001   .     S
Ti386     Er430    10.002   .     S
Ti386     Ti390    9.994   .     S
Ti386     Ce394    10.001   .     S
Ti387     Er426    10.002   .     S
Ti387     Ti389    9.994   .     S
Ti387     Ce396    10.001   .     S
Ti388     Er424    10.002   .     S
Ti388     Ce392    10.001   .     S
Ti389     Er426    10.002   .     S
Ti389     Ce395    10.001   .     S
Ti390     Er430    10.002   .     S
Ti390     Ce393    10.001   .     S
Ce391     Ce395    10.002   .     S
Ce391     Ce402    9.999   .     S
Ce392     Ce393    10.002   .     S
Ce392     Ce401    9.999   .     S
Ce393     Ce413    9.999   .     S
Ce394     Ce414    9.999   .     S
Ce394     Ce396    10.002   .     S
Ce395     Ce406    9.999   .     S
Ce396     Ce405    9.999   .     S
Ce397     Ce401    10.002   .     S
Ce397     Ce410    9.999   .     S
Ce398     Ce400    10.002   .     S
Ce398     Ce409    9.999   .     S
Ce399     Ce402    10.002   .     S
Ce399     Ce403    9.999   .     S
Ce400     Ce404    9.999   .     S
Ce403     Ce406    10.002   .     S
Ce403     Ti415    10.001   .     S
Ce404     Ce407    10.002   .     S
Ce404     Ti418    10.001   .     S
Ce405     Ce408    10.002   .     S
Ce405     Ti417    10.001   .     S
Ce406     Ti419    10.001   .     S
Ce407     Ce412    9.999   .     S
Ce407     Ti420    10.001   .     S
Ce408     Ce411    9.999   .     S
Ce408     Ti416    10.001   .     S
Ce409     Ce412    10.002   .     S
Ce410     Ce413    10.002   .     S
Ce411     Ce414    10.002   .     S
Ti415     Er431    10.002   .     S
Ti415     Ti418    9.994   .     S
Ti416     Er427    10.002   .     S
Ti416     Ti420    9.994   .     S
Ti417     Er425    10.002   .     S
Ti417     Ti419    9.994   .     S
Ti418     Er431    10.002   .     S
Ti419     Er425    10.002   .     S
Ti420     Er427    10.002   .     S
Er421     V437    10.004   .     S
Er422     V436    10.004   1_556     S
Er423     V67    10.004   1_556     S
Er432     V438    10.004   .     S
V433     V435    9.997   1_556     S
V433     V434    9.997   1_556     S
V433     V438    10.002   .     S
V433     V437    10.002   .     S
V433     Er363    10.004   1_556     S
V434     V435    9.997   .     S
V434     V433    9.997   1_554     S
V434     V436    10.002   .     S
V434     V437    10.002   1_554     S
V435     V433    9.997   1_554     S
V435     V438    10.002   1_554     S
V435     V436    10.002   .     S
V436     V438    9.997   1_554     S
V436     V437    9.997   1_554     S
V436     Er422    10.004   1_554     S
V437     V434    10.002   1_556     S
V437     V436    9.997   1_556     S
V437     V438    9.997   .     S
V438     V435    10.002   1_556     S
V438     V436    9.997   1_556     S
V439     V441    9.997   .     S
V439     V440    9.997   .     S
V439     V442    10.002   .     S
V439     V443    10.002   .     S
V439     Er509    10.004   .     S
V440     V441    9.997   .     S
V440     V442    10.002   .     S
V440     V444    10.002   .     S
V440     Er508    10.004   .     S
V441     V443    10.002   .     S
V441     V444    10.002   .     S
V441     Er505    10.004   .     S
V442     V443    9.997   .     S
V442     V444    9.997   .     S
V443     V444    9.997   .     S
V445     V446    9.997   .     S
V445     V447    9.997   .     S
V445     V448    10.002   .     S
V445     V449    10.002   .     S
V445     Er502    10.004   .     S
V446     V447    9.997   .     S
V446     V450    10.002   .     S
V446     V448    10.002   .     S
V446     Er504    10.004   .     S
V447     V450    10.002   .     S
V447     V449    10.002   .     S
V447     Er510    10.004   .     S
V448     V449    9.997   .     S
V448     V450    9.997   .     S
V448     Er572    10.004   .     S
V449     V450    9.997   .     S
V449     Er574    10.004   .     S
V450     Er565    10.004   .     S
Ti451     Ti454    9.994   .     S
Ti451     Er506    10.002   .     S
Ti451     Ce471    10.001   .     S
Ti452     Er507    10.002   .     S
Ti452     Ti455    9.994   .     S
Ti452     Ce474    10.001   .     S
Ti453     Er500    10.002   .     S
Ti453     Ti456    9.994   .     S
Ti453     Ce469    10.001   .     S
Ti454     Er506    10.002   .     S
Ti454     Ce472    10.001   .     S
Ti455     Er507    10.002   .     S
Ti455     Ce473    10.001   .     S
Ti456     Er500    10.002   .     S
Ti456     Ce470    10.001   .     S
Ti457     Er504    10.002   .     S
Ti457     Ti462    9.994   .     S
Ti457     Ce480    10.001   .     S
Ti458     Er510    10.002   .     S
Ti458     Ti459    9.994   .     S
Ti458     Ce476    10.001   .     S
Ti459     Er510    10.002   .     S
Ti459     Ce475    10.001   .     S
Ti460     Er502    10.002   .     S
Ti460     Ti461    9.994   .     S
Ti460     Ce478    10.001   .     S
Ti461     Er502    10.002   .     S
Ti461     Ce477    10.001   .     S
Ti462     Er504    10.002   .     S
Ti462     Ce479    10.001   .     S
Ti463     Er503    10.002   .     S
Ti463     Ti467    9.994   .     S
Ti463     Ce484    10.001   .     S
Ti464     Er501    10.002   .     S
Ti464     Ti466    9.994   .     S
Ti464     Ce485    10.001   .     S
Ti465     Er499    10.002   .     S
Ti465     Ti468    9.994   .     S
Ti465     Ce481    10.001   .     S
Ti466     Er501    10.002   .     S
Ti466     Ce486    10.001   .     S
Ti467     Er503    10.002   .     S
Ti467     Ce483    10.001   .     S
Ti468     Er499    10.002   .     S
Ti468     Ce482    10.001   .     S
Ce469     Ce482    9.999   .     S
Ce469     Ce474    10.002   .     S
Ce470     Ce481    9.999   .     S
Ce470     Ce471    10.002   .     S
Ce471     Ce479    9.999   .     S
Ce472     Ce480    9.999   .     S
Ce472     Ce473    10.002   .     S
Ce473     Ce488    9.999   .     S
Ce474     Ce487    9.999   .     S
Ce475     Ce479    10.002   .     S
Ce475     Ce484    9.999   .     S
Ce476     Ce477    10.002   .     S
Ce476     Ce483    9.999   .     S
Ce477     Ce490    9.999   .     S
Ce478     Ce489    9.999   .     S
Ce478     Ce480    10.002   .     S
Ce481     Ce484    10.002   .     S
Ce482     Ce485    10.002   .     S
Ce483     Ce486    10.002   .     S
Ce485     Ce491    9.999   .     S
Ce486     Ce492    9.999   .     S
Ce487     Ce491    10.002   .     S
Ce487     Ti497    10.001   .     S
Ce488     Ce489    10.002   .     S
Ce488     Ti494    10.001   .     S
Ce489     Ti496    10.001   .     S
Ce490     Ce492    10.002   .     S
Ce490     Ti498    10.001   .     S
Ce491     Ti495    10.001   .     S
Ce492     Ti493    10.001   .     S
Ti493     Er505    10.002   .     S
Ti493     Ti495    9.994   .     S
Ti494     Ti497    9.994   .     S
Ti494     Er508    10.002   .     S
Ti495     Er505    10.002   .     S
Ti496     Er509    10.002   .     S
Ti496     Ti498    9.994   .     S
Ti497     Er508    10.002   .     S
Ti498     Er509    10.002   .     S
Er499     V514    10.004   1_655     S
Er500     V80    10.004   1_655     S
Er501     V515    10.004   .     S
Er503     V516    10.004   .     S
V511     V513    9.997   .     S
V511     V512    9.997   1_455     S
V511     V515    10.002   1_455     S
V511     V514    10.002   .     S
V512     V511    9.997   1_655     S
V512     V513    9.997   1_655     S
V512     V516    10.002   .     S
V512     V515    10.002   .     S
V512     Er364    10.004   1_655     S
V513     V512    9.997   1_455     S
V513     V514    10.002   .     S
V513     V516    10.002   1_455     S
V514     V515    9.997   1_455     S
V514     V516    9.997   1_455     S
V514     Er499    10.004   1_455     S
V515     V511    10.002   1_655     S
V515     V514    9.997   1_655     S
V515     V516    9.997   .     S
V516     V513    10.002   1_655     S
V516     V514    9.997   1_655     S
Ti517     Er571    10.002   .     S
Ti517     Ti520    9.994   .     S
Ti517     Ce539    10.001   .     S
Ti518     Er569    10.002   .     S
Ti518     Ti521    9.994   .     S
Ti518     Ce536    10.001   .     S
Ti519     Er570    10.002   .     S
Ti519     Ti522    9.994   .     S
Ti519     Ce537    10.001   .     S
Ti520     Er571    10.002   .     S
Ti520     Ce540    10.001   .     S
Ti521     Er569    10.002   .     S
Ti521     Ce535    10.001   .     S
Ti522     Er570    10.002   .     S
Ti522     Ce538    10.001   .     S
Ti523     Er566    10.002   .     S
Ti523     Ti526    9.994   .     S
Ti523     Ce541    10.001   .     S
Ti524     Er568    10.002   .     S
Ti524     Ti528    9.994   .     S
Ti524     Ce546    10.001   .     S
Ti525     Er576    10.002   .     S
Ti525     Ti527    9.994   .     S
Ti525     Ce543    10.001   .     S
Ti526     Er566    10.002   .     S
Ti526     Ce542    10.001   .     S
Ti527     Er576    10.002   .     S
Ti527     Ce544    10.001   .     S
Ti528     Er568    10.002   .     S
Ti528     Ce545    10.001   .     S
Ti529     Er572    10.002   .     S
Ti529     Ti534    9.994   .     S
Ti529     Ce555    10.001   .     S
Ti530     Er574    10.002   .     S
Ti530     Ti531    9.994   .     S
Ti530     Ce553    10.001   .     S
Ti531     Er574    10.002   .     S
Ti531     Ce554    10.001   .     S
Ti532     Er565    10.002   .     S
Ti532     Ti533    9.994   .     S
Ti532     Ce558    10.001   .     S
Ti533     Er565    10.002   .     S
Ti533     Ce557    10.001   .     S
Ti534     Er572    10.002   .     S
Ti534     Ce556    10.001   .     S
Ce535     Ce540    10.002   .     S
Ce535     Ce542    9.999   .     S
Ce536     Ce537    10.002   .     S
Ce536     Ce541    9.999   .     S
Ce537     Ce548    9.999   .     S
Ce538     Ce547    9.999   .     S
Ce538     Ce539    10.002   .     S
Ce539     Ce553    9.999   .     S
Ce540     Ce554    9.999   .     S
Ce541     Ce544    10.002   .     S
Ce542     Ce545    10.002   .     S
Ce543     Ce551    9.999   .     S
Ce543     Ce546    10.002   .     S
Ce544     Ce552    9.999   .     S
Ce545     Ce556    9.999   .     S
Ce546     Ce555    9.999   .     S
Ce547     Ce550    10.002   .     S
Ce547     Ti563    10.001   .     S
Ce548     Ce552    10.002   .     S
Ce548     Ti562    10.001   .     S
Ce549     Ce551    10.002   .     S
Ce549     Ce558    9.999   .     S
Ce549     Ti561    10.001   .     S
Ce550     Ce557    9.999   .     S
Ce550     Ti559    10.001   .     S
Ce551     Ti564    10.001   .     S
Ce552     Ti560    10.001   .     S
Ce553     Ce557    10.002   .     S
Ce554     Ce556    10.002   .     S
Ce555     Ce558    10.002   .     S
Ti559     Er573    10.002   .     S
Ti559     Ti561    9.994   .     S
Ti560     Er575    10.002   .     S
Ti560     Ti564    9.994   .     S
Ti561     Er573    10.002   .     S
Ti562     Er567    10.002   .     S
Ti562     Ti563    9.994   .     S
Ti563     Er567    10.002   .     S
Ti564     Er575    10.002   .     S
Er567     V94    10.004   1_545     S
Er570     V76    10.004   1_545     S
