data_dnka
_audit_creation_date              2020-02-04
_audit_creation_method            'Pymatgen'
_symmetry_space_group_name_H-M    'P1'
_symmetry_Int_Tables_number       1
loop_
_symmetry_equiv_pos_as_xyz
  x,y,z
_cell_length_a                    125.1124
_cell_length_b                    125.1124
_cell_length_c                    125.1124
_cell_angle_alpha                 90.0
_cell_angle_beta                 90.0
_cell_angle_gamma                 90.0
loop_
_atom_site_label
_atom_site_type_symbol
_atom_site_fract_x
_atom_site_fract_y
_atom_site_fract_z
Ti1     Ti     0.3953   0.6613   0.2178
Ti2     Ti     0.3953   0.7178   0.1613
Ti3     Ti     0.6613   0.3953   0.2178
Ti4     Ti     0.7178   0.3953   0.1613
Ti5     Ti     0.3953   0.2178   0.6613
Ti6     Ti     0.3953   0.1613   0.7178
Ti7     Ti     0.2178   0.3953   0.6613
Ti8     Ti     0.1613   0.3953   0.7178
Ti9     Ti     0.6613   0.2178   0.3953
Ti10     Ti     0.7178   0.1613   0.3953
Ti11     Ti     0.2178   0.6613   0.3953
Ti12     Ti     0.1613   0.7178   0.3953
Ti13     Ti     0.8387   0.7822   0.1047
Ti14     Ti     0.7822   0.8387   0.1047
Ti15     Ti     0.7822   0.1047   0.8387
Ti16     Ti     0.8387   0.1047   0.7822
Ti17     Ti     0.1047   0.8387   0.7822
Ti18     Ti     0.1047   0.7822   0.8387
Ti19     Ti     0.7822   0.8387   0.8953
Ti20     Ti     0.8387   0.7822   0.8953
Ti21     Ti     0.8953   0.7822   0.8387
Ti22     Ti     0.8953   0.8387   0.7822
Ti23     Ti     0.8387   0.8953   0.7822
Ti24     Ti     0.7822   0.8953   0.8387
Ti25     Ti     0.2822   0.3953   0.1613
Ti26     Ti     0.3387   0.3953   0.2178
Ti27     Ti     0.3953   0.2822   0.1613
Ti28     Ti     0.3953   0.3387   0.2178
Ti29     Ti     0.3953   0.1613   0.2822
Ti30     Ti     0.3953   0.2178   0.3387
Ti31     Ti     0.2822   0.1613   0.3953
Ti32     Ti     0.3387   0.2178   0.3953
Ti33     Ti     0.3953   0.7822   0.6613
Ti34     Ti     0.3953   0.8387   0.7178
Ti35     Ti     0.1613   0.2822   0.3953
Ti36     Ti     0.2178   0.3387   0.3953
Ti37     Ti     0.7822   0.3953   0.6613
Ti38     Ti     0.8387   0.3953   0.7178
Ti39     Ti     0.1613   0.3953   0.2822
Ti40     Ti     0.2178   0.3953   0.3387
Ti41     Ti     0.3953   0.6613   0.7822
Ti42     Ti     0.3953   0.7178   0.8387
Ti43     Ti     0.6613   0.7178   0.1047
Ti44     Ti     0.7178   0.6613   0.1047
Ti45     Ti     0.6613   0.3953   0.7822
Ti46     Ti     0.7178   0.3953   0.8387
Ti47     Ti     0.6613   0.7822   0.3953
Ti48     Ti     0.7178   0.8387   0.3953
Ti49     Ti     0.7178   0.1047   0.6613
Ti50     Ti     0.6613   0.1047   0.7178
Ti51     Ti     0.7822   0.6613   0.3953
Ti52     Ti     0.8387   0.7178   0.3953
Ti53     Ti     0.1047   0.6613   0.7178
Ti54     Ti     0.1047   0.7178   0.6613
Ti55     Ti     0.2822   0.3953   0.8387
Ti56     Ti     0.3387   0.3953   0.7822
Ti57     Ti     0.7178   0.6613   0.8953
Ti58     Ti     0.6613   0.7178   0.8953
Ti59     Ti     0.3953   0.2822   0.8387
Ti60     Ti     0.3953   0.3387   0.7822
Ti61     Ti     0.3953   0.8387   0.2822
Ti62     Ti     0.3953   0.7822   0.3387
Ti63     Ti     0.8387   0.3953   0.2822
Ti64     Ti     0.7822   0.3953   0.3387
Ti65     Ti     0.2822   0.8387   0.3953
Ti66     Ti     0.3387   0.7822   0.3953
Ti67     Ti     0.6613   0.8953   0.7178
Ti68     Ti     0.7178   0.8953   0.6613
Ti69     Ti     0.2822   0.1047   0.6613
Ti70     Ti     0.3387   0.1047   0.7178
Ti71     Ti     0.8387   0.2822   0.3953
Ti72     Ti     0.7822   0.3387   0.3953
Ti73     Ti     0.8953   0.6613   0.7178
Ti74     Ti     0.8953   0.7178   0.6613
Ti75     Ti     0.1047   0.2822   0.6613
Ti76     Ti     0.1047   0.3387   0.7178
Ti77     Ti     0.2822   0.6613   0.1047
Ti78     Ti     0.3387   0.7178   0.1047
Ti79     Ti     0.6613   0.2822   0.1047
Ti80     Ti     0.7178   0.3387   0.1047
Ti81     Ti     0.6613   0.1047   0.2822
Ti82     Ti     0.7178   0.1047   0.3387
Ti83     Ti     0.1047   0.6613   0.2822
Ti84     Ti     0.1047   0.7178   0.3387
Ti85     Ti     0.6613   0.6047   0.2178
Ti86     Ti     0.7178   0.6047   0.1613
Ti87     Ti     0.2822   0.6613   0.8953
Ti88     Ti     0.3387   0.7178   0.8953
Ti89     Ti     0.6613   0.2822   0.8953
Ti90     Ti     0.7178   0.3387   0.8953
Ti91     Ti     0.6047   0.6613   0.2178
Ti92     Ti     0.6047   0.7178   0.1613
Ti93     Ti     0.6047   0.2178   0.6613
Ti94     Ti     0.6047   0.1613   0.7178
Ti95     Ti     0.6613   0.2178   0.6047
Ti96     Ti     0.7178   0.1613   0.6047
Ti97     Ti     0.2822   0.1047   0.3387
Ti98     Ti     0.3387   0.1047   0.2822
Ti99     Ti     0.6613   0.8953   0.2822
Ti100     Ti     0.7178   0.8953   0.3387
Ti101     Ti     0.2822   0.8953   0.6613
Ti102     Ti     0.3387   0.8953   0.7178
Ti103     Ti     0.2178   0.6613   0.6047
Ti104     Ti     0.1613   0.7178   0.6047
Ti105     Ti     0.2178   0.6047   0.6613
Ti106     Ti     0.1613   0.6047   0.7178
Ti107     Ti     0.8953   0.6613   0.2822
Ti108     Ti     0.8953   0.7178   0.3387
Ti109     Ti     0.1047   0.3387   0.2822
Ti110     Ti     0.1047   0.2822   0.3387
Ti111     Ti     0.8953   0.2822   0.6613
Ti112     Ti     0.8953   0.3387   0.7178
Ti113     Ti     0.1613   0.2178   0.1047
Ti114     Ti     0.2178   0.1613   0.1047
Ti115     Ti     0.8953   0.2178   0.1613
Ti116     Ti     0.8953   0.1613   0.2178
Ti117     Ti     0.2178   0.1047   0.1613
Ti118     Ti     0.1613   0.1047   0.2178
Ti119     Ti     0.1613   0.8953   0.2178
Ti120     Ti     0.2178   0.8953   0.1613
Ti121     Ti     0.1047   0.1613   0.2178
Ti122     Ti     0.1047   0.2178   0.1613
Ti123     Ti     0.3387   0.2822   0.1047
Ti124     Ti     0.2822   0.3387   0.1047
Ti125     Ti     0.6047   0.2822   0.1613
Ti126     Ti     0.6047   0.3387   0.2178
Ti127     Ti     0.2822   0.6047   0.1613
Ti128     Ti     0.3387   0.6047   0.2178
Ti129     Ti     0.2822   0.1613   0.6047
Ti130     Ti     0.3387   0.2178   0.6047
Ti131     Ti     0.6047   0.1613   0.2822
Ti132     Ti     0.6047   0.2178   0.3387
Ti133     Ti     0.1613   0.6047   0.2822
Ti134     Ti     0.2178   0.6047   0.3387
Er135     Er     0.6852   0.7417   0.46
Er136     Er     0.6852   0.7417   0.54
V137     V     0.6363   0.6928   0.5
Er138     Er     0.7417   0.6852   0.46
Er139     Er     0.7417   0.6852   0.54
V140     V     0.6928   0.6363   0.5
Er141     Er     0.6852   0.46   0.7417
Er142     Er     0.6852   0.54   0.7417
V143     V     0.6363   0.5   0.6928
Er144     Er     0.7417   0.46   0.6852
Er145     Er     0.7417   0.54   0.6852
V146     V     0.6928   0.5   0.6363
Er147     Er     0.6852   0.46   0.2583
Er148     Er     0.6852   0.54   0.2583
V149     V     0.6363   0.5   0.3072
Er150     Er     0.7417   0.46   0.3148
Er151     Er     0.7417   0.54   0.3148
V152     V     0.6928   0.5   0.3637
Ce153     Ce     0.6958   0.5565   0.5
Ce154     Ce     0.6958   0.5   0.5565
Ce155     Ce     0.6958   0.4435   0.5
Ce156     Ce     0.6958   0.5   0.4435
Er157     Er     0.6852   0.2583   0.46
Er158     Er     0.6852   0.2583   0.54
V159     V     0.6363   0.3072   0.5
Er160     Er     0.7417   0.3148   0.46
Er161     Er     0.7417   0.3148   0.54
V162     V     0.6928   0.3637   0.5
Er163     Er     0.46   0.6852   0.7417
Er164     Er     0.54   0.6852   0.7417
V165     V     0.5   0.6363   0.6928
Er166     Er     0.46   0.7417   0.6852
Er167     Er     0.54   0.7417   0.6852
V168     V     0.5   0.6928   0.6363
Er169     Er     0.46   0.6852   0.2583
Er170     Er     0.54   0.6852   0.2583
V171     V     0.5   0.6363   0.3072
Er172     Er     0.46   0.7417   0.3148
Er173     Er     0.54   0.7417   0.3148
V174     V     0.5   0.6928   0.3637
Ce175     Ce     0.5   0.6958   0.5565
Ce176     Ce     0.5565   0.6958   0.5
Ce177     Ce     0.4435   0.6958   0.5
Ce178     Ce     0.5   0.6958   0.4435
Er179     Er     0.2583   0.6852   0.46
Er180     Er     0.2583   0.6852   0.54
V181     V     0.3072   0.6363   0.5
Er182     Er     0.3148   0.7417   0.46
Er183     Er     0.3148   0.7417   0.54
V184     V     0.3637   0.6928   0.5
Ce185     Ce     0.5565   0.5   0.3042
Ce186     Ce     0.5   0.5565   0.3042
Ce187     Ce     0.4435   0.5   0.3042
Ce188     Ce     0.5   0.4435   0.3042
Er189     Er     0.46   0.3148   0.2583
Er190     Er     0.54   0.3148   0.2583
V191     V     0.5   0.3637   0.3072
Er192     Er     0.46   0.2583   0.3148
Er193     Er     0.54   0.2583   0.3148
V194     V     0.5   0.3072   0.3637
Ce195     Ce     0.5565   0.3042   0.5
Ce196     Ce     0.5   0.3042   0.5565
Ce197     Ce     0.4435   0.3042   0.5
Ce198     Ce     0.5   0.3042   0.4435
Er199     Er     0.3148   0.46   0.2583
Er200     Er     0.3148   0.54   0.2583
V201     V     0.3637   0.5   0.3072
Er202     Er     0.2583   0.46   0.3148
Er203     Er     0.2583   0.54   0.3148
V204     V     0.3072   0.5   0.3637
Ce205     Ce     0.3042   0.5   0.5565
Ce206     Ce     0.3042   0.5565   0.5
Ce207     Ce     0.3042   0.4435   0.5
Ce208     Ce     0.3042   0.5   0.4435
Er209     Er     0.3148   0.2583   0.46
Er210     Er     0.3148   0.2583   0.54
V211     V     0.3637   0.3072   0.5
Er212     Er     0.2583   0.3148   0.46
Er213     Er     0.2583   0.3148   0.54
V214     V     0.3072   0.3637   0.5
Er215     Er     0.46   0.2583   0.6852
Er216     Er     0.54   0.2583   0.6852
V217     V     0.5   0.3072   0.6363
Er218     Er     0.46   0.3148   0.7417
Er219     Er     0.54   0.3148   0.7417
V220     V     0.5   0.3637   0.6928
Ce221     Ce     0.5   0.5565   0.6958
Ce222     Ce     0.5565   0.5   0.6958
Ce223     Ce     0.4435   0.5   0.6958
Ce224     Ce     0.5   0.4435   0.6958
Er225     Er     0.2583   0.46   0.6852
Er226     Er     0.2583   0.54   0.6852
V227     V     0.3072   0.5   0.6363
Er228     Er     0.3148   0.46   0.7417
Er229     Er     0.3148   0.54   0.7417
V230     V     0.3637   0.5   0.6928
Ti231     Ti     0.1613   0.2822   0.6047
Ti232     Ti     0.2178   0.3387   0.6047
Ti233     Ti     0.2178   0.1613   0.8953
Ti234     Ti     0.1613   0.2178   0.8953
Ti235     Ti     0.6613   0.6047   0.7822
Ti236     Ti     0.7178   0.6047   0.8387
Ti237     Ti     0.2822   0.3387   0.8953
Ti238     Ti     0.3387   0.2822   0.8953
Ti239     Ti     0.6047   0.6613   0.7822
Ti240     Ti     0.6047   0.7178   0.8387
Ti241     Ti     0.6047   0.7822   0.6613
Ti242     Ti     0.6047   0.8387   0.7178
Ti243     Ti     0.2178   0.1047   0.8387
Ti244     Ti     0.1613   0.1047   0.7822
Ti245     Ti     0.2178   0.8387   0.1047
Ti246     Ti     0.1613   0.7822   0.1047
Ti247     Ti     0.6047   0.2822   0.8387
Ti248     Ti     0.6047   0.3387   0.7822
Ti249     Ti     0.6047   0.8387   0.2822
Ti250     Ti     0.6047   0.7822   0.3387
Ti251     Ti     0.2178   0.8387   0.8953
Ti252     Ti     0.1613   0.7822   0.8953
Er253     Er     0.7417   0.1852   0.04
Er254     Er     0.7417   0.1852   0.96
V255     V     0.6928   0.1363   0.0
Er256     Er     0.6852   0.2417   0.04
Er257     Er     0.6852   0.2417   0.96
V258     V     0.6363   0.1928   0.0
Er259     Er     0.7417   0.04   0.1852
Er260     Er     0.7417   0.96   0.1852
V261     V     0.6928   0.0   0.1363
Er262     Er     0.6852   0.04   0.2417
Er263     Er     0.6852   0.96   0.2417
V264     V     0.6363   0.0   0.1928
Ce265     Ce     0.6958   0.9435   0.0
Ce266     Ce     0.6958   0.0   0.9435
Ce267     Ce     0.6958   0.0   0.0565
Ce268     Ce     0.6958   0.0565   0.0
Ce269     Ce     0.5   0.1958   0.9435
Ce270     Ce     0.5565   0.1958   0.0
Ce271     Ce     0.5   0.1958   0.0565
Ce272     Ce     0.4435   0.1958   0.0
Er273     Er     0.2583   0.1852   0.04
Er274     Er     0.2583   0.1852   0.96
V275     V     0.3072   0.1363   0.0
Er276     Er     0.3148   0.2417   0.04
Er277     Er     0.3148   0.2417   0.96
V278     V     0.3637   0.1928   0.0
Ce279     Ce     0.3042   0.9435   0.0
Ce280     Ce     0.3042   0.0   0.9435
Ce281     Ce     0.3042   0.0   0.0565
Ce282     Ce     0.3042   0.0565   0.0
Er283     Er     0.46   0.2417   0.1852
Er284     Er     0.54   0.2417   0.1852
V285     V     0.5   0.1928   0.1363
Er286     Er     0.46   0.1852   0.2417
Er287     Er     0.54   0.1852   0.2417
V288     V     0.5   0.1363   0.1928
Ce289     Ce     0.5   0.9435   0.1958
Ce290     Ce     0.5565   0.0   0.1958
Ce291     Ce     0.5   0.0565   0.1958
Ce292     Ce     0.4435   0.0   0.1958
Er293     Er     0.2583   0.04   0.1852
Er294     Er     0.2583   0.96   0.1852
V295     V     0.3072   0.0   0.1363
Er296     Er     0.3148   0.04   0.2417
Er297     Er     0.3148   0.96   0.2417
V298     V     0.3637   0.0   0.1928
Er299     Er     0.7417   0.8148   0.04
Er300     Er     0.7417   0.8148   0.96
V301     V     0.6928   0.8637   0.0
Er302     Er     0.6852   0.7583   0.04
Er303     Er     0.6852   0.7583   0.96
V304     V     0.6363   0.8072   0.0
Er305     Er     0.7417   0.04   0.8148
Er306     Er     0.7417   0.96   0.8148
V307     V     0.6928   0.0   0.8637
Er308     Er     0.6852   0.04   0.7583
Er309     Er     0.6852   0.96   0.7583
V310     V     0.6363   0.0   0.8072
Er311     Er     0.46   0.7583   0.1852
Er312     Er     0.54   0.7583   0.1852
V313     V     0.5   0.8072   0.1363
Er314     Er     0.46   0.8148   0.2417
Er315     Er     0.54   0.8148   0.2417
V316     V     0.5   0.8637   0.1928
Er317     Er     0.2583   0.8148   0.04
Er318     Er     0.2583   0.8148   0.96
V319     V     0.3072   0.8637   0.0
Er320     Er     0.3148   0.7583   0.04
Er321     Er     0.3148   0.7583   0.96
V322     V     0.3637   0.8072   0.0
Ce323     Ce     0.5565   0.8042   0.0
Ce324     Ce     0.5   0.8042   0.9435
Ce325     Ce     0.5   0.8042   0.0565
Ce326     Ce     0.4435   0.8042   0.0
Er327     Er     0.46   0.7583   0.8148
Er328     Er     0.54   0.7583   0.8148
V329     V     0.5   0.8072   0.8637
Er330     Er     0.46   0.8148   0.7583
Er331     Er     0.54   0.8148   0.7583
V332     V     0.5   0.8637   0.8072
Er333     Er     0.46   0.1852   0.7583
Er334     Er     0.54   0.1852   0.7583
V335     V     0.5   0.1363   0.8072
Er336     Er     0.46   0.2417   0.8148
Er337     Er     0.54   0.2417   0.8148
V338     V     0.5   0.1928   0.8637
Er339     Er     0.2583   0.04   0.8148
Er340     Er     0.2583   0.96   0.8148
V341     V     0.3072   0.0   0.8637
Er342     Er     0.3148   0.04   0.7583
Er343     Er     0.3148   0.96   0.7583
V344     V     0.3637   0.0   0.8072
Ce345     Ce     0.5   0.9435   0.8042
Ce346     Ce     0.5565   0.0   0.8042
Ce347     Ce     0.5   0.0565   0.8042
Ce348     Ce     0.4435   0.0   0.8042
Ti349     Ti     0.2178   0.8953   0.8387
Ti350     Ti     0.1613   0.8953   0.7822
Ti351     Ti     0.2822   0.8953   0.3387
Ti352     Ti     0.3387   0.8953   0.2822
Ti353     Ti     0.6613   0.7822   0.6047
Ti354     Ti     0.7178   0.8387   0.6047
Ti355     Ti     0.7822   0.6613   0.6047
Ti356     Ti     0.8387   0.7178   0.6047
Ti357     Ti     0.7822   0.6047   0.6613
Ti358     Ti     0.8387   0.6047   0.7178
Ti359     Ti     0.8387   0.2178   0.1047
Ti360     Ti     0.7822   0.1613   0.1047
Ti361     Ti     0.1047   0.2178   0.8387
Ti362     Ti     0.1047   0.1613   0.7822
Ti363     Ti     0.2822   0.6047   0.8387
Ti364     Ti     0.3387   0.6047   0.7822
Ti365     Ti     0.8387   0.6047   0.2822
Ti366     Ti     0.7822   0.6047   0.3387
Ti367     Ti     0.8953   0.2178   0.8387
Ti368     Ti     0.8953   0.1613   0.7822
Er369     Er     0.1852   0.7417   0.04
Er370     Er     0.1852   0.7417   0.96
V371     V     0.1363   0.6928   0.0
Er372     Er     0.2417   0.6852   0.04
Er373     Er     0.2417   0.6852   0.96
V374     V     0.1928   0.6363   0.0
Er375     Er     0.04   0.7417   0.1852
Er376     Er     0.96   0.7417   0.1852
V377     V     0.0   0.6928   0.1363
Er378     Er     0.04   0.6852   0.2417
Er379     Er     0.96   0.6852   0.2417
V380     V     0.0   0.6363   0.1928
Ce381     Ce     0.9435   0.6958   0.0
Ce382     Ce     0.0   0.6958   0.9435
Ce383     Ce     0.0   0.6958   0.0565
Ce384     Ce     0.0565   0.6958   0.0
Ce385     Ce     0.1958   0.5   0.9435
Ce386     Ce     0.1958   0.5565   0.0
Ce387     Ce     0.1958   0.5   0.0565
Ce388     Ce     0.1958   0.4435   0.0
Er389     Er     0.1852   0.2583   0.04
Er390     Er     0.1852   0.2583   0.96
V391     V     0.1363   0.3072   0.0
Er392     Er     0.2417   0.3148   0.04
Er393     Er     0.2417   0.3148   0.96
V394     V     0.1928   0.3637   0.0
Ce395     Ce     0.0   0.3042   0.9435
Ce396     Ce     0.9435   0.3042   0.0
Ce397     Ce     0.0   0.3042   0.0565
Ce398     Ce     0.0565   0.3042   0.0
Er399     Er     0.2417   0.46   0.1852
Er400     Er     0.2417   0.54   0.1852
V401     V     0.1928   0.5   0.1363
Er402     Er     0.1852   0.46   0.2417
Er403     Er     0.1852   0.54   0.2417
V404     V     0.1363   0.5   0.1928
Ce405     Ce     0.9435   0.5   0.1958
Ce406     Ce     0.0   0.5565   0.1958
Ce407     Ce     0.0565   0.5   0.1958
Ce408     Ce     0.0   0.4435   0.1958
Er409     Er     0.04   0.2583   0.1852
Er410     Er     0.96   0.2583   0.1852
V411     V     0.0   0.3072   0.1363
Er412     Er     0.04   0.3148   0.2417
Er413     Er     0.96   0.3148   0.2417
V414     V     0.0   0.3637   0.1928
Er415     Er     0.8148   0.7417   0.04
Er416     Er     0.8148   0.7417   0.96
V417     V     0.8637   0.6928   0.0
Er418     Er     0.7583   0.6852   0.04
Er419     Er     0.7583   0.6852   0.96
V420     V     0.8072   0.6363   0.0
Er421     Er     0.7583   0.46   0.1852
Er422     Er     0.7583   0.54   0.1852
V423     V     0.8072   0.5   0.1363
Er424     Er     0.8148   0.46   0.2417
Er425     Er     0.8148   0.54   0.2417
V426     V     0.8637   0.5   0.1928
Er427     Er     0.8148   0.2583   0.04
Er428     Er     0.8148   0.2583   0.96
V429     V     0.8637   0.3072   0.0
Er430     Er     0.7583   0.3148   0.04
Er431     Er     0.7583   0.3148   0.96
V432     V     0.8072   0.3637   0.0
Ce433     Ce     0.8042   0.5565   0.0
Ce434     Ce     0.8042   0.5   0.9435
Ce435     Ce     0.8042   0.5   0.0565
Ce436     Ce     0.8042   0.4435   0.0
Er437     Er     0.7583   0.46   0.8148
Er438     Er     0.7583   0.54   0.8148
V439     V     0.8072   0.5   0.8637
Er440     Er     0.8148   0.46   0.7583
Er441     Er     0.8148   0.54   0.7583
V442     V     0.8637   0.5   0.8072
Er443     Er     0.04   0.7417   0.8148
Er444     Er     0.96   0.7417   0.8148
V445     V     0.0   0.6928   0.8637
Er446     Er     0.04   0.6852   0.7583
Er447     Er     0.96   0.6852   0.7583
V448     V     0.0   0.6363   0.8072
Er449     Er     0.1852   0.46   0.7583
Er450     Er     0.1852   0.54   0.7583
V451     V     0.1363   0.5   0.8072
Er452     Er     0.2417   0.46   0.8148
Er453     Er     0.2417   0.54   0.8148
V454     V     0.1928   0.5   0.8637
Er455     Er     0.04   0.2583   0.8148
Er456     Er     0.96   0.2583   0.8148
V457     V     0.0   0.3072   0.8637
Er458     Er     0.04   0.3148   0.7583
Er459     Er     0.96   0.3148   0.7583
V460     V     0.0   0.3637   0.8072
Ce461     Ce     0.9435   0.5   0.8042
Ce462     Ce     0.0   0.5565   0.8042
Ce463     Ce     0.0565   0.5   0.8042
Ce464     Ce     0.0   0.4435   0.8042
Ti465     Ti     0.8387   0.2178   0.8953
Ti466     Ti     0.7822   0.1613   0.8953
Ti467     Ti     0.8953   0.2822   0.3387
Ti468     Ti     0.8953   0.3387   0.2822
Ti469     Ti     0.1047   0.8387   0.2178
Ti470     Ti     0.1047   0.7822   0.1613
Ti471     Ti     0.8387   0.1047   0.2178
Ti472     Ti     0.7822   0.1047   0.1613
Ti473     Ti     0.2822   0.8387   0.6047
Ti474     Ti     0.3387   0.7822   0.6047
Ti475     Ti     0.8387   0.2822   0.6047
Ti476     Ti     0.7822   0.3387   0.6047
Ti477     Ti     0.8387   0.8953   0.2178
Ti478     Ti     0.7822   0.8953   0.1613
Er479     Er     0.04   0.1852   0.7417
Er480     Er     0.96   0.1852   0.7417
V481     V     0.0   0.1363   0.6928
Er482     Er     0.04   0.2417   0.6852
Er483     Er     0.96   0.2417   0.6852
V484     V     0.0   0.1928   0.6363
Er485     Er     0.1852   0.04   0.7417
Er486     Er     0.1852   0.96   0.7417
V487     V     0.1363   0.0   0.6928
Er488     Er     0.2417   0.04   0.6852
Er489     Er     0.2417   0.96   0.6852
V490     V     0.1928   0.0   0.6363
Ce491     Ce     0.9435   0.0   0.6958
Ce492     Ce     0.0   0.9435   0.6958
Ce493     Ce     0.0565   0.0   0.6958
Ce494     Ce     0.0   0.0565   0.6958
Ce495     Ce     0.1958   0.9435   0.5
Ce496     Ce     0.1958   0.0   0.5565
Ce497     Ce     0.1958   0.0565   0.5
Ce498     Ce     0.1958   0.0   0.4435
Er499     Er     0.1852   0.04   0.2583
Er500     Er     0.1852   0.96   0.2583
V501     V     0.1363   0.0   0.3072
Er502     Er     0.2417   0.04   0.3148
Er503     Er     0.2417   0.96   0.3148
V504     V     0.1928   0.0   0.3637
Ce505     Ce     0.0   0.9435   0.3042
Ce506     Ce     0.9435   0.0   0.3042
Ce507     Ce     0.0   0.0565   0.3042
Ce508     Ce     0.0565   0.0   0.3042
Er509     Er     0.2417   0.1852   0.46
Er510     Er     0.2417   0.1852   0.54
V511     V     0.1928   0.1363   0.5
Er512     Er     0.1852   0.2417   0.46
Er513     Er     0.1852   0.2417   0.54
V514     V     0.1363   0.1928   0.5
Ce515     Ce     0.9435   0.1958   0.5
Ce516     Ce     0.0   0.1958   0.5565
Ce517     Ce     0.0565   0.1958   0.5
Ce518     Ce     0.0   0.1958   0.4435
Er519     Er     0.04   0.1852   0.2583
Er520     Er     0.96   0.1852   0.2583
V521     V     0.0   0.1363   0.3072
Er522     Er     0.04   0.2417   0.3148
Er523     Er     0.96   0.2417   0.3148
V524     V     0.0   0.1928   0.3637
Er525     Er     0.04   0.8148   0.7417
Er526     Er     0.96   0.8148   0.7417
V527     V     0.0   0.8637   0.6928
Er528     Er     0.04   0.7583   0.6852
Er529     Er     0.96   0.7583   0.6852
V530     V     0.0   0.8072   0.6363
Er531     Er     0.1852   0.7583   0.46
Er532     Er     0.1852   0.7583   0.54
V533     V     0.1363   0.8072   0.5
Er534     Er     0.2417   0.8148   0.46
Er535     Er     0.2417   0.8148   0.54
V536     V     0.1928   0.8637   0.5
Er537     Er     0.04   0.8148   0.2583
Er538     Er     0.96   0.8148   0.2583
V539     V     0.0   0.8637   0.3072
Er540     Er     0.04   0.7583   0.3148
Er541     Er     0.96   0.7583   0.3148
V542     V     0.0   0.8072   0.3637
Ce543     Ce     0.0   0.8042   0.5565
Ce544     Ce     0.9435   0.8042   0.5
Ce545     Ce     0.0565   0.8042   0.5
Ce546     Ce     0.0   0.8042   0.4435
Er547     Er     0.8148   0.7583   0.46
Er548     Er     0.8148   0.7583   0.54
V549     V     0.8637   0.8072   0.5
Er550     Er     0.7583   0.8148   0.46
Er551     Er     0.7583   0.8148   0.54
V552     V     0.8072   0.8637   0.5
Er553     Er     0.8148   0.04   0.7417
Er554     Er     0.8148   0.96   0.7417
V555     V     0.8637   0.0   0.6928
Er556     Er     0.7583   0.04   0.6852
Er557     Er     0.7583   0.96   0.6852
V558     V     0.8072   0.0   0.6363
Er559     Er     0.7583   0.1852   0.46
Er560     Er     0.7583   0.1852   0.54
V561     V     0.8072   0.1363   0.5
Er562     Er     0.8148   0.2417   0.46
Er563     Er     0.8148   0.2417   0.54
V564     V     0.8637   0.1928   0.5
Er565     Er     0.8148   0.04   0.2583
Er566     Er     0.8148   0.96   0.2583
V567     V     0.8637   0.0   0.3072
Er568     Er     0.7583   0.04   0.3148
Er569     Er     0.7583   0.96   0.3148
V570     V     0.8072   0.0   0.3637
Ce571     Ce     0.8042   0.9435   0.5
Ce572     Ce     0.8042   0.0   0.5565
Ce573     Ce     0.8042   0.0565   0.5
Ce574     Ce     0.8042   0.0   0.4435
Ti575     Ti     0.8953   0.8387   0.2178
Ti576     Ti     0.8953   0.7822   0.1613
loop_
_geom_bond_atom_site_label_1
_geom_bond_atom_site_label_2
_geom_bond_distance
_geom_bond_site_symmetry_2
_ccdc_geom_bond_type
Ti1     Ti2    10.002   .     S
Ti1     Er169    10.009   .     S
Ti1     Ti128    10.013   .     S
Ti2     Er311    10.009   .     S
Ti2     Ti78    10.013   .     S
Ti3     Ti4    10.002   .     S
Ti3     Er147    10.009   .     S
Ti3     Ti126    10.013   .     S
Ti4     Er421    10.009   .     S
Ti4     Ti80    10.013   .     S
Ti5     Ti6    10.002   .     S
Ti5     Er215    10.009   .     S
Ti5     Ti130    10.013   .     S
Ti6     Er333    10.009   .     S
Ti6     Ti70    10.013   .     S
Ti7     Ti8    10.002   .     S
Ti7     Er225    10.009   .     S
Ti7     Ti232    10.013   .     S
Ti8     Er449    10.009   .     S
Ti8     Ti76    10.013   .     S
Ti9     Ti10    10.002   .     S
Ti9     Er157    10.009   .     S
Ti9     Ti132    10.013   .     S
Ti10     Er559    10.009   .     S
Ti10     Ti82    10.013   .     S
Ti11     Ti12    10.002   .     S
Ti11     Er179    10.009   .     S
Ti11     Ti134    10.013   .     S
Ti12     Er531    10.009   .     S
Ti12     Ti84    10.013   .     S
Ti13     Ti14    10.002   .     S
Ti13     Er415    10.009   .     S
Ti13     Ti576    10.013   .     S
Ti14     Er299    10.009   .     S
Ti14     Ti478    10.013   .     S
Ti15     Ti16    10.002   .     S
Ti15     Er305    10.009   .     S
Ti15     Ti466    10.013   .     S
Ti16     Er553    10.009   .     S
Ti16     Ti368    10.013   .     S
Ti17     Ti18    10.002   .     S
Ti17     Er525    10.009   .     S
Ti17     Ti350    10.013   .     S
Ti18     Er443    10.009   .     S
Ti18     Ti252    10.013   .     S
Ti19     Ti20    10.002   .     S
Ti19     Er300    10.009   .     S
Ti19     Ti24    10.013   .     S
Ti20     Er416    10.009   .     S
Ti20     Ti21    10.013   .     S
Ti21     Ti22    10.002   .     S
Ti21     Er444    10.009   .     S
Ti22     Er526    10.009   .     S
Ti22     Ti23    10.013   .     S
Ti23     Ti24    10.002   .     S
Ti23     Er554    10.009   .     S
Ti24     Er306    10.009   .     S
Ti25     Ti26    10.002   .     S
Ti25     Er399    10.009   .     S
Ti25     Ti124    10.013   .     S
Ti26     Er199    10.009   .     S
Ti26     Ti28    10.013   .     S
Ti27     Ti28    10.002   .     S
Ti27     Er283    10.009   .     S
Ti27     Ti123    10.013   .     S
Ti28     Er189    10.009   .     S
Ti29     Ti30    10.002   .     S
Ti29     Er286    10.009   .     S
Ti29     Ti98    10.013   .     S
Ti30     Er192    10.009   .     S
Ti30     Ti32    10.013   .     S
Ti31     Ti32    10.002   .     S
Ti31     Er509    10.009   .     S
Ti31     Ti97    10.013   .     S
Ti32     Er209    10.009   .     S
Ti33     Ti34    10.002   .     S
Ti33     Er166    10.009   .     S
Ti33     Ti474    10.013   .     S
Ti34     Er330    10.009   .     S
Ti34     Ti102    10.013   .     S
Ti35     Ti36    10.002   .     S
Ti35     Er512    10.009   .     S
Ti35     Ti110    10.013   .     S
Ti36     Er212    10.009   .     S
Ti36     Ti40    10.013   .     S
Ti37     Ti38    10.002   .     S
Ti37     Er144    10.009   .     S
Ti37     Ti476    10.013   .     S
Ti38     Er440    10.009   .     S
Ti38     Ti112    10.013   .     S
Ti39     Ti40    10.002   .     S
Ti39     Er402    10.009   .     S
Ti39     Ti109    10.013   .     S
Ti40     Er202    10.009   .     S
Ti41     Ti42    10.002   .     S
Ti41     Er163    10.009   .     S
Ti41     Ti364    10.013   .     S
Ti42     Er327    10.009   .     S
Ti42     Ti88    10.013   .     S
Ti43     Ti44    10.002   .     S
Ti43     Er302    10.009   .     S
Ti43     Ti92    10.013   .     S
Ti44     Er418    10.009   .     S
Ti44     Ti86    10.013   .     S
Ti45     Ti46    10.002   .     S
Ti45     Er141    10.009   .     S
Ti45     Ti248    10.013   .     S
Ti46     Er437    10.009   .     S
Ti46     Ti90    10.013   .     S
Ti47     Ti48    10.002   .     S
Ti47     Er135    10.009   .     S
Ti47     Ti250    10.013   .     S
Ti48     Er550    10.009   .     S
Ti48     Ti100    10.013   .     S
Ti49     Ti50    10.002   .     S
Ti49     Er556    10.009   .     S
Ti49     Ti96    10.013   .     S
Ti50     Er308    10.009   .     S
Ti50     Ti94    10.013   .     S
Ti51     Ti52    10.002   .     S
Ti51     Er138    10.009   .     S
Ti51     Ti366    10.013   .     S
Ti52     Er547    10.009   .     S
Ti52     Ti108    10.013   .     S
Ti53     Ti54    10.002   .     S
Ti53     Er446    10.009   .     S
Ti53     Ti106    10.013   .     S
Ti54     Er528    10.009   .     S
Ti54     Ti104    10.013   .     S
Ti55     Ti56    10.002   .     S
Ti55     Er452    10.009   .     S
Ti55     Ti237    10.013   .     S
Ti56     Er228    10.009   .     S
Ti56     Ti60    10.013   .     S
Ti57     Ti58    10.002   .     S
Ti57     Er419    10.009   .     S
Ti57     Ti236    10.013   .     S
Ti58     Er303    10.009   .     S
Ti58     Ti240    10.013   .     S
Ti59     Ti60    10.002   .     S
Ti59     Er336    10.009   .     S
Ti59     Ti238    10.013   .     S
Ti60     Er218    10.009   .     S
Ti61     Ti62    10.002   .     S
Ti61     Er314    10.009   .     S
Ti61     Ti352    10.013   .     S
Ti62     Er172    10.009   .     S
Ti62     Ti66    10.013   .     S
Ti63     Ti64    10.002   .     S
Ti63     Er424    10.009   .     S
Ti63     Ti468    10.013   .     S
Ti64     Er150    10.009   .     S
Ti64     Ti72    10.013   .     S
Ti65     Ti66    10.002   .     S
Ti65     Er534    10.009   .     S
Ti65     Ti351    10.013   .     S
Ti66     Er182    10.009   .     S
Ti67     Ti68    10.002   .     S
Ti67     Er309    10.009   .     S
Ti67     Ti242    10.013   .     S
Ti68     Er557    10.009   .     S
Ti68     Ti354    10.013   .     S
Ti69     Ti70    10.002   .     S
Ti69     Er488    10.009   .     S
Ti69     Ti129    10.013   .     S
Ti70     Er342    10.009   .     S
Ti71     Ti72    10.002   .     S
Ti71     Er562    10.009   .     S
Ti71     Ti467    10.013   .     S
Ti72     Er160    10.009   .     S
Ti73     Ti74    10.002   .     S
Ti73     Er447    10.009   .     S
Ti73     Ti358    10.013   .     S
Ti74     Er529    10.009   .     S
Ti74     Ti356    10.013   .     S
Ti75     Ti76    10.002   .     S
Ti75     Er482    10.009   .     S
Ti75     Ti231    10.013   .     S
Ti76     Er458    10.009   .     S
Ti77     Ti78    10.002   .     S
Ti77     Er372    10.009   .     S
Ti77     Ti127    10.013   .     S
Ti78     Er320    10.009   .     S
Ti79     Ti80    10.002   .     S
Ti79     Er256    10.009   .     S
Ti79     Ti125    10.013   .     S
Ti80     Er430    10.009   .     S
Ti81     Ti82    10.002   .     S
Ti81     Er262    10.009   .     S
Ti81     Ti131    10.013   .     S
Ti82     Er568    10.009   .     S
Ti83     Ti84    10.002   .     S
Ti83     Er378    10.009   .     S
Ti83     Ti133    10.013   .     S
Ti84     Er540    10.009   .     S
Ti85     Ti86    10.002   .     S
Ti85     Er148    10.009   .     S
Ti85     Ti91    10.013   .     S
Ti86     Er422    10.009   .     S
Ti87     Ti88    10.002   .     S
Ti87     Er373    10.009   .     S
Ti87     Ti363    10.013   .     S
Ti88     Er321    10.009   .     S
Ti89     Ti90    10.002   .     S
Ti89     Er257    10.009   .     S
Ti89     Ti247    10.013   .     S
Ti90     Er431    10.009   .     S
Ti91     Ti92    10.002   .     S
Ti91     Er170    10.009   .     S
Ti92     Er312    10.009   .     S
Ti93     Ti94    10.002   .     S
Ti93     Er216    10.009   .     S
Ti93     Ti95    10.013   .     S
Ti94     Er334    10.009   .     S
Ti95     Ti96    10.002   .     S
Ti95     Er158    10.009   .     S
Ti96     Er560    10.009   .     S
Ti97     Ti98    10.002   .     S
Ti97     Er502    10.009   .     S
Ti98     Er296    10.009   .     S
Ti99     Ti100    10.002   .     S
Ti99     Er263    10.009   .     S
Ti99     Ti249    10.013   .     S
Ti100     Er569    10.009   .     S
Ti101     Ti102    10.002   .     S
Ti101     Er489    10.009   .     S
Ti101     Ti473    10.013   .     S
Ti102     Er343    10.009   .     S
Ti103     Ti104    10.002   .     S
Ti103     Er180    10.009   .     S
Ti103     Ti105    10.013   .     S
Ti104     Er532    10.009   .     S
Ti105     Ti106    10.002   .     S
Ti105     Er226    10.009   .     S
Ti106     Er450    10.009   .     S
Ti107     Ti108    10.002   .     S
Ti107     Er379    10.009   .     S
Ti107     Ti365    10.013   .     S
Ti108     Er541    10.009   .     S
Ti109     Ti110    10.002   .     S
Ti109     Er412    10.009   .     S
Ti110     Er522    10.009   .     S
Ti111     Ti112    10.002   .     S
Ti111     Er483    10.009   .     S
Ti111     Ti475    10.013   .     S
Ti112     Er459    10.009   .     S
Ti113     Ti114    10.002   .     S
Ti113     Er389    10.009   .     S
Ti113     Ti122    10.013   .     S
Ti114     Er273    10.009   .     S
Ti114     Ti117    10.013   .     S
Ti115     Ti116    10.002   .     S
Ti115     Er410    10.009   .     S
Ti115     Ti359    10.013   .     S
Ti116     Er520    10.009   .     S
Ti116     Ti471    10.013   .     S
Ti117     Ti118    10.002   .     S
Ti117     Er293    10.009   .     S
Ti118     Er499    10.009   .     S
Ti118     Ti121    10.013   .     S
Ti119     Ti120    10.002   .     S
Ti119     Er500    10.009   .     S
Ti119     Ti469    10.013   .     S
Ti120     Er294    10.009   .     S
Ti120     Ti245    10.013   .     S
Ti121     Ti122    10.002   .     S
Ti121     Er519    10.009   .     S
Ti122     Er409    10.009   .     S
Ti123     Ti124    10.002   .     S
Ti123     Er276    10.009   .     S
Ti124     Er392    10.009   .     S
Ti125     Ti126    10.002   .     S
Ti125     Er284    10.009   .     S
Ti126     Er190    10.009   .     S
Ti127     Ti128    10.002   .     S
Ti127     Er400    10.009   .     S
Ti128     Er200    10.009   .     S
Ti129     Ti130    10.002   .     S
Ti129     Er510    10.009   .     S
Ti130     Er210    10.009   .     S
Ti131     Ti132    10.002   .     S
Ti131     Er287    10.009   .     S
Ti132     Er193    10.009   .     S
Ti133     Ti134    10.002   .     S
Ti133     Er403    10.009   .     S
Ti134     Er203    10.009   .     S
Er135     V137    9.99   .     S
Er135     Er136    10.001   .     S
Er135     Er138    9.999   .     S
Er136     V137    9.99   .     S
Er136     Er139    9.999   .     S
Er136     Ti353    10.009   .     S
V137     V140    9.992   .     S
V137     Ce176    9.996   .     S
Er138     V140    9.99   .     S
Er138     Er139    10.001   .     S
Er139     V140    9.99   .     S
Er139     Ti355    10.009   .     S
V140     Ce153    9.996   .     S
Er141     V143    9.99   .     S
Er141     Er142    10.001   .     S
Er141     Er144    9.999   .     S
Er142     V143    9.99   .     S
Er142     Er145    9.999   .     S
Er142     Ti235    10.009   .     S
V143     V146    9.992   .     S
V143     Ce222    9.996   .     S
Er144     V146    9.99   .     S
Er144     Er145    10.001   .     S
Er145     V146    9.99   .     S
Er145     Ti357    10.009   .     S
V146     Ce154    9.996   .     S
Er147     V149    9.99   .     S
Er147     Er148    10.001   .     S
Er147     Er150    9.999   .     S
Er148     V149    9.99   .     S
Er148     Er151    9.999   .     S
V149     V152    9.992   .     S
V149     Ce185    9.996   .     S
Er150     V152    9.99   .     S
Er150     Er151    10.001   .     S
Er151     V152    9.99   .     S
Er151     Ti366    10.009   .     S
V152     Ce156    9.996   .     S
Ce153     Ce156    9.993   .     S
Ce153     Ce154    9.993   .     S
Ce154     Ce155    9.993   .     S
Ce155     Ce156    9.993   .     S
Ce155     V162    9.996   .     S
Er157     V159    9.99   .     S
Er157     Er158    10.001   .     S
Er157     Er160    9.999   .     S
Er158     V159    9.99   .     S
Er158     Er161    9.999   .     S
V159     V162    9.992   .     S
V159     Ce195    9.996   .     S
Er160     V162    9.99   .     S
Er160     Er161    10.001   .     S
Er161     V162    9.99   .     S
Er161     Ti476    10.009   .     S
Er163     V165    9.99   .     S
Er163     Er164    10.001   .     S
Er163     Er166    9.999   .     S
Er164     V165    9.99   .     S
Er164     Er167    9.999   .     S
Er164     Ti239    10.009   .     S
V165     V168    9.992   .     S
V165     Ce221    9.996   .     S
Er166     V168    9.99   .     S
Er166     Er167    10.001   .     S
Er167     V168    9.99   .     S
Er167     Ti241    10.009   .     S
V168     Ce175    9.996   .     S
Er169     V171    9.99   .     S
Er169     Er170    10.001   .     S
Er169     Er172    9.999   .     S
Er170     V171    9.99   .     S
Er170     Er173    9.999   .     S
V171     V174    9.992   .     S
V171     Ce186    9.996   .     S
Er172     V174    9.99   .     S
Er172     Er173    10.001   .     S
Er173     V174    9.99   .     S
Er173     Ti250    10.009   .     S
V174     Ce178    9.996   .     S
Ce175     Ce177    9.993   .     S
Ce175     Ce176    9.993   .     S
Ce176     Ce178    9.993   .     S
Ce177     Ce178    9.993   .     S
Ce177     V184    9.996   .     S
Er179     V181    9.99   .     S
Er179     Er180    10.001   .     S
Er179     Er182    9.999   .     S
Er180     V181    9.99   .     S
Er180     Er183    9.999   .     S
V181     V184    9.992   .     S
V181     Ce206    9.996   .     S
Er182     V184    9.99   .     S
Er182     Er183    10.001   .     S
Er183     V184    9.99   .     S
Er183     Ti474    10.009   .     S
Ce185     Ce188    9.993   .     S
Ce185     Ce186    9.993   .     S
Ce186     Ce187    9.993   .     S
Ce187     Ce188    9.993   .     S
Ce187     V201    9.996   .     S
Ce188     V191    9.996   .     S
Er189     V191    9.99   .     S
Er189     Er190    10.001   .     S
Er189     Er192    9.999   .     S
Er190     V191    9.99   .     S
Er190     Er193    9.999   .     S
V191     V194    9.992   .     S
Er192     V194    9.99   .     S
Er192     Er193    10.001   .     S
Er193     V194    9.99   .     S
V194     Ce198    9.996   .     S
Ce195     Ce198    9.993   .     S
Ce195     Ce196    9.993   .     S
Ce196     Ce197    9.993   .     S
Ce196     V217    9.996   .     S
Ce197     Ce198    9.993   .     S
Ce197     V211    9.996   .     S
Er199     V201    9.99   .     S
Er199     Er200    10.001   .     S
Er199     Er202    9.999   .     S
Er200     V201    9.99   .     S
Er200     Er203    9.999   .     S
V201     V204    9.992   .     S
Er202     V204    9.99   .     S
Er202     Er203    10.001   .     S
Er203     V204    9.99   .     S
V204     Ce208    9.996   .     S
Ce205     Ce207    9.993   .     S
Ce205     Ce206    9.993   .     S
Ce205     V227    9.996   .     S
Ce206     Ce208    9.993   .     S
Ce207     Ce208    9.993   .     S
Ce207     V214    9.996   .     S
Er209     V211    9.99   .     S
Er209     Er210    10.001   .     S
Er209     Er212    9.999   .     S
Er210     V211    9.99   .     S
Er210     Er213    9.999   .     S
V211     V214    9.992   .     S
Er212     V214    9.99   .     S
Er212     Er213    10.001   .     S
Er213     V214    9.99   .     S
Er213     Ti232    10.009   .     S
Er215     V217    9.99   .     S
Er215     Er216    10.001   .     S
Er215     Er218    9.999   .     S
Er216     V217    9.99   .     S
Er216     Er219    9.999   .     S
V217     V220    9.992   .     S
Er218     V220    9.99   .     S
Er218     Er219    10.001   .     S
Er219     V220    9.99   .     S
Er219     Ti248    10.009   .     S
V220     Ce224    9.996   .     S
Ce221     Ce223    9.993   .     S
Ce221     Ce222    9.993   .     S
Ce222     Ce224    9.993   .     S
Ce223     Ce224    9.993   .     S
Ce223     V230    9.996   .     S
Er225     V227    9.99   .     S
Er225     Er226    10.001   .     S
Er225     Er228    9.999   .     S
Er226     V227    9.99   .     S
Er226     Er229    9.999   .     S
V227     V230    9.992   .     S
Er228     V230    9.99   .     S
Er228     Er229    10.001   .     S
Er229     V230    9.99   .     S
Er229     Ti364    10.009   .     S
Ti231     Ti232    10.002   .     S
Ti231     Er513    10.009   .     S
Ti233     Ti234    10.002   .     S
Ti233     Er274    10.009   .     S
Ti233     Ti243    10.013   .     S
Ti234     Er390    10.009   .     S
Ti234     Ti361    10.013   .     S
Ti235     Ti236    10.002   .     S
Ti235     Ti239    10.013   .     S
Ti236     Er438    10.009   .     S
Ti237     Ti238    10.002   .     S
Ti237     Er393    10.009   .     S
Ti238     Er277    10.009   .     S
Ti239     Ti240    10.002   .     S
Ti240     Er328    10.009   .     S
Ti241     Ti242    10.002   .     S
Ti241     Ti353    10.013   .     S
Ti242     Er331    10.009   .     S
Ti243     Ti244    10.002   .     S
Ti243     Er339    10.009   .     S
Ti244     Er485    10.009   .     S
Ti244     Ti362    10.013   .     S
Ti245     Ti246    10.002   .     S
Ti245     Er317    10.009   .     S
Ti246     Er369    10.009   .     S
Ti246     Ti470    10.013   .     S
Ti247     Ti248    10.002   .     S
Ti247     Er337    10.009   .     S
Ti249     Ti250    10.002   .     S
Ti249     Er315    10.009   .     S
Ti251     Ti252    10.002   .     S
Ti251     Er318    10.009   .     S
Ti251     Ti349    10.013   .     S
Ti252     Er370    10.009   .     S
Er253     V255    9.99   .     S
Er253     Er254    10.001   1_554     S
Er253     Er256    9.999   .     S
Er253     Ti360    10.009   .     S
Er254     V255    9.99   1_556     S
Er254     Er253    10.001   1_556     S
Er254     Er257    9.999   .     S
Er254     Ti466    10.009   .     S
V255     Er254    9.99   1_554     S
V255     V258    9.992   .     S
V255     Ce268    9.996   .     S
Er256     V258    9.99   .     S
Er256     Er257    10.001   1_554     S
Er257     V258    9.99   1_556     S
Er257     Er256    10.001   1_556     S
V258     Er257    9.99   1_554     S
V258     Ce270    9.996   .     S
Er259     V261    9.99   .     S
Er259     Er260    10.001   1_545     S
Er259     Er262    9.999   .     S
Er259     Ti472    10.009   .     S
Er260     V261    9.99   1_565     S
Er260     Er259    10.001   1_565     S
Er260     Er263    9.999   .     S
Er260     Ti478    10.009   .     S
V261     Er260    9.99   1_545     S
V261     V264    9.992   .     S
V261     Ce267    9.996   .     S
Er262     V264    9.99   .     S
Er262     Er263    10.001   1_545     S
Er263     V264    9.99   1_565     S
Er263     Er262    10.001   1_565     S
V264     Er263    9.99   1_545     S
V264     Ce290    9.996   .     S
Ce265     Ce267    9.993   1_565     S
Ce265     Ce266    9.993   1_564     S
Ce265     V301    9.996   .     S
Ce266     Ce268    9.993   1_556     S
Ce266     Ce265    9.993   1_546     S
Ce266     V307    9.996   .     S
Ce267     Ce265    9.993   1_545     S
Ce267     Ce268    9.993   .     S
Ce268     Ce266    9.993   1_554     S
Ce269     Ce272    9.993   1_556     S
Ce269     Ce270    9.993   1_556     S
Ce269     V338    9.996   .     S
Ce270     Ce271    9.993   .     S
Ce270     Ce269    9.993   1_554     S
Ce271     Ce272    9.993   .     S
Ce271     V285    9.996   .     S
Ce272     Ce269    9.993   1_554     S
Ce272     V278    9.996   .     S
Er273     V275    9.99   .     S
Er273     Er274    10.001   1_554     S
Er273     Er276    9.999   .     S
Er274     V275    9.99   1_556     S
Er274     Er273    10.001   1_556     S
Er274     Er277    9.999   .     S
V275     Er274    9.99   1_554     S
V275     V278    9.992   .     S
V275     Ce282    9.996   .     S
Er276     V278    9.99   .     S
Er276     Er277    10.001   1_554     S
Er277     V278    9.99   1_556     S
Er277     Er276    10.001   1_556     S
V278     Er277    9.99   1_554     S
Ce279     Ce281    9.993   1_565     S
Ce279     Ce280    9.993   1_564     S
Ce279     V319    9.996   .     S
Ce280     Ce282    9.993   1_556     S
Ce280     Ce279    9.993   1_546     S
Ce280     V341    9.996   .     S
Ce281     Ce279    9.993   1_545     S
Ce281     Ce282    9.993   .     S
Ce281     V295    9.996   .     S
Ce282     Ce280    9.993   1_554     S
Er283     V285    9.99   .     S
Er283     Er284    10.001   .     S
Er283     Er286    9.999   .     S
Er284     V285    9.99   .     S
Er284     Er287    9.999   .     S
V285     V288    9.992   .     S
Er286     V288    9.99   .     S
Er286     Er287    10.001   .     S
Er287     V288    9.99   .     S
V288     Ce291    9.996   .     S
Ce289     Ce292    9.993   1_565     S
Ce289     Ce290    9.993   1_565     S
Ce289     V316    9.996   .     S
Ce290     Ce291    9.993   .     S
Ce290     Ce289    9.993   1_545     S
Ce291     Ce292    9.993   .     S
Ce292     Ce289    9.993   1_545     S
Ce292     V298    9.996   .     S
Er293     V295    9.99   .     S
Er293     Er294    10.001   1_545     S
Er293     Er296    9.999   .     S
Er294     V295    9.99   1_565     S
Er294     Er293    10.001   1_565     S
Er294     Er297    9.999   .     S
V295     Er294    9.99   1_545     S
V295     V298    9.992   .     S
Er296     V298    9.99   .     S
Er296     Er297    10.001   1_545     S
Er297     V298    9.99   1_565     S
Er297     Er296    10.001   1_565     S
Er297     Ti352    10.009   .     S
V298     Er297    9.99   1_545     S
Er299     V301    9.99   .     S
Er299     Er300    10.001   1_554     S
Er299     Er302    9.999   .     S
Er300     V301    9.99   1_556     S
Er300     Er299    10.001   1_556     S
Er300     Er303    9.999   .     S
V301     Er300    9.99   1_554     S
V301     V304    9.992   .     S
Er302     V304    9.99   .     S
Er302     Er303    10.001   1_554     S
Er303     V304    9.99   1_556     S
Er303     Er302    10.001   1_556     S
V304     Er303    9.99   1_554     S
V304     Ce323    9.996   .     S
Er305     V307    9.99   .     S
Er305     Er306    10.001   1_545     S
Er305     Er308    9.999   .     S
Er306     V307    9.99   1_565     S
Er306     Er305    10.001   1_565     S
Er306     Er309    9.999   .     S
V307     Er306    9.99   1_545     S
V307     V310    9.992   .     S
Er308     V310    9.99   .     S
Er308     Er309    10.001   1_545     S
Er309     V310    9.99   1_565     S
Er309     Er308    10.001   1_565     S
V310     Er309    9.99   1_545     S
V310     Ce346    9.996   .     S
Er311     V313    9.99   .     S
Er311     Er312    10.001   .     S
Er311     Er314    9.999   .     S
Er312     V313    9.99   .     S
Er312     Er315    9.999   .     S
V313     V316    9.992   .     S
V313     Ce325    9.996   .     S
Er314     V316    9.99   .     S
Er314     Er315    10.001   .     S
Er315     V316    9.99   .     S
Er317     V319    9.99   .     S
Er317     Er318    10.001   1_554     S
Er317     Er320    9.999   .     S
Er318     V319    9.99   1_556     S
Er318     Er317    10.001   1_556     S
Er318     Er321    9.999   .     S
V319     Er318    9.99   1_554     S
V319     V322    9.992   .     S
Er320     V322    9.99   .     S
Er320     Er321    10.001   1_554     S
Er321     V322    9.99   1_556     S
Er321     Er320    10.001   1_556     S
V322     Er321    9.99   1_554     S
V322     Ce326    9.996   .     S
Ce323     Ce325    9.993   .     S
Ce323     Ce324    9.993   1_554     S
Ce324     Ce326    9.993   1_556     S
Ce324     Ce323    9.993   1_556     S
Ce324     V329    9.996   .     S
Ce325     Ce326    9.993   .     S
Ce326     Ce324    9.993   1_554     S
Er327     V329    9.99   .     S
Er327     Er328    10.001   .     S
Er327     Er330    9.999   .     S
Er328     V329    9.99   .     S
Er328     Er331    9.999   .     S
V329     V332    9.992   .     S
Er330     V332    9.99   .     S
Er330     Er331    10.001   .     S
Er331     V332    9.99   .     S
V332     Ce345    9.996   .     S
Er333     V335    9.99   .     S
Er333     Er334    10.001   .     S
Er333     Er336    9.999   .     S
Er334     V335    9.99   .     S
Er334     Er337    9.999   .     S
V335     V338    9.992   .     S
V335     Ce347    9.996   .     S
Er336     V338    9.99   .     S
Er336     Er337    10.001   .     S
Er337     V338    9.99   .     S
Er339     V341    9.99   .     S
Er339     Er340    10.001   1_545     S
Er339     Er342    9.999   .     S
Er340     V341    9.99   1_565     S
Er340     Er339    10.001   1_565     S
Er340     Er343    9.999   .     S
Er340     Ti349    10.009   .     S
V341     Er340    9.99   1_545     S
V341     V344    9.992   .     S
Er342     V344    9.99   .     S
Er342     Er343    10.001   1_545     S
Er343     V344    9.99   1_565     S
Er343     Er342    10.001   1_565     S
V344     Er343    9.99   1_545     S
V344     Ce348    9.996   .     S
Ce345     Ce348    9.993   1_565     S
Ce345     Ce346    9.993   1_565     S
Ce346     Ce347    9.993   .     S
Ce346     Ce345    9.993   1_545     S
Ce347     Ce348    9.993   .     S
Ce348     Ce345    9.993   1_545     S
Ti349     Ti350    10.002   .     S
Ti350     Er486    10.009   .     S
Ti351     Ti352    10.002   .     S
Ti351     Er503    10.009   .     S
Ti353     Ti354    10.002   .     S
Ti354     Er551    10.009   .     S
Ti355     Ti356    10.002   .     S
Ti355     Ti357    10.013   .     S
Ti356     Er548    10.009   .     S
Ti357     Ti358    10.002   .     S
Ti358     Er441    10.009   .     S
Ti359     Ti360    10.002   .     S
Ti359     Er427    10.009   .     S
Ti360     Ti472    10.013   .     S
Ti361     Ti362    10.002   .     S
Ti361     Er455    10.009   .     S
Ti362     Er479    10.009   .     S
Ti363     Ti364    10.002   .     S
Ti363     Er453    10.009   .     S
Ti365     Ti366    10.002   .     S
Ti365     Er425    10.009   .     S
Ti367     Ti368    10.002   .     S
Ti367     Er456    10.009   .     S
Ti367     Ti465    10.013   .     S
Ti368     Er480    10.009   .     S
Er369     V371    9.99   .     S
Er369     Er370    10.001   1_554     S
Er369     Er372    9.999   .     S
Er370     V371    9.99   1_556     S
Er370     Er369    10.001   1_556     S
Er370     Er373    9.999   .     S
V371     Er370    9.99   1_554     S
V371     V374    9.992   .     S
V371     Ce384    9.996   .     S
Er372     V374    9.99   .     S
Er372     Er373    10.001   1_554     S
Er373     V374    9.99   1_556     S
Er373     Er372    10.001   1_556     S
V374     Er373    9.99   1_554     S
V374     Ce386    9.996   .     S
Er375     V377    9.99   .     S
Er375     Er376    10.001   1_455     S
Er375     Er378    9.999   .     S
Er375     Ti470    10.009   .     S
Er376     V377    9.99   1_655     S
Er376     Er375    10.001   1_655     S
Er376     Er379    9.999   .     S
Er376     Ti576    10.009   .     S
V377     Er376    9.99   1_455     S
V377     V380    9.992   .     S
V377     Ce383    9.996   .     S
Er378     V380    9.99   .     S
Er378     Er379    10.001   1_455     S
Er379     V380    9.99   1_655     S
Er379     Er378    10.001   1_655     S
V380     Er379    9.99   1_455     S
V380     Ce406    9.996   .     S
Ce381     Ce383    9.993   1_655     S
Ce381     Ce382    9.993   1_654     S
Ce381     V417    9.996   .     S
Ce382     Ce384    9.993   1_556     S
Ce382     Ce381    9.993   1_456     S
Ce382     V445    9.996   .     S
Ce383     Ce381    9.993   1_455     S
Ce383     Ce384    9.993   .     S
Ce384     Ce382    9.993   1_554     S
Ce385     Ce388    9.993   1_556     S
Ce385     Ce386    9.993   1_556     S
Ce385     V454    9.996   .     S
Ce386     Ce387    9.993   .     S
Ce386     Ce385    9.993   1_554     S
Ce387     Ce388    9.993   .     S
Ce387     V401    9.996   .     S
Ce388     Ce385    9.993   1_554     S
Ce388     V394    9.996   .     S
Er389     V391    9.99   .     S
Er389     Er390    10.001   1_554     S
Er389     Er392    9.999   .     S
Er390     V391    9.99   1_556     S
Er390     Er389    10.001   1_556     S
Er390     Er393    9.999   .     S
V391     Er390    9.99   1_554     S
V391     V394    9.992   .     S
V391     Ce398    9.996   .     S
Er392     V394    9.99   .     S
Er392     Er393    10.001   1_554     S
Er393     V394    9.99   1_556     S
Er393     Er392    10.001   1_556     S
V394     Er393    9.99   1_554     S
Ce395     Ce398    9.993   1_556     S
Ce395     Ce396    9.993   1_456     S
Ce395     V457    9.996   .     S
Ce396     Ce397    9.993   1_655     S
Ce396     Ce395    9.993   1_654     S
Ce396     V429    9.996   .     S
Ce397     Ce396    9.993   1_455     S
Ce397     Ce398    9.993   .     S
Ce397     V411    9.996   .     S
Ce398     Ce395    9.993   1_554     S
Er399     V401    9.99   .     S
Er399     Er400    10.001   .     S
Er399     Er402    9.999   .     S
Er400     V401    9.99   .     S
Er400     Er403    9.999   .     S
V401     V404    9.992   .     S
Er402     V404    9.99   .     S
Er402     Er403    10.001   .     S
Er403     V404    9.99   .     S
V404     Ce407    9.996   .     S
Ce405     Ce408    9.993   1_655     S
Ce405     Ce406    9.993   1_655     S
Ce405     V426    9.996   .     S
Ce406     Ce407    9.993   .     S
Ce406     Ce405    9.993   1_455     S
Ce407     Ce408    9.993   .     S
Ce408     Ce405    9.993   1_455     S
Ce408     V414    9.996   .     S
Er409     V411    9.99   .     S
Er409     Er410    10.001   1_455     S
Er409     Er412    9.999   .     S
Er410     V411    9.99   1_655     S
Er410     Er409    10.001   1_655     S
Er410     Er413    9.999   .     S
V411     Er410    9.99   1_455     S
V411     V414    9.992   .     S
Er412     V414    9.99   .     S
Er412     Er413    10.001   1_455     S
Er413     V414    9.99   1_655     S
Er413     Er412    10.001   1_655     S
Er413     Ti468    10.009   .     S
V414     Er413    9.99   1_455     S
Er415     V417    9.99   .     S
Er415     Er416    10.001   1_554     S
Er415     Er418    9.999   .     S
Er416     V417    9.99   1_556     S
Er416     Er415    10.001   1_556     S
Er416     Er419    9.999   .     S
V417     Er416    9.99   1_554     S
V417     V420    9.992   .     S
Er418     V420    9.99   .     S
Er418     Er419    10.001   1_554     S
Er419     V420    9.99   1_556     S
Er419     Er418    10.001   1_556     S
V420     Er419    9.99   1_554     S
V420     Ce433    9.996   .     S
Er421     V423    9.99   .     S
Er421     Er422    10.001   .     S
Er421     Er424    9.999   .     S
Er422     V423    9.99   .     S
Er422     Er425    9.999   .     S
V423     V426    9.992   .     S
V423     Ce435    9.996   .     S
Er424     V426    9.99   .     S
Er424     Er425    10.001   .     S
Er425     V426    9.99   .     S
Er427     V429    9.99   .     S
Er427     Er428    10.001   1_554     S
Er427     Er430    9.999   .     S
Er428     V429    9.99   1_556     S
Er428     Er427    10.001   1_556     S
Er428     Er431    9.999   .     S
Er428     Ti465    10.009   .     S
V429     Er428    9.99   1_554     S
V429     V432    9.992   .     S
Er430     V432    9.99   .     S
Er430     Er431    10.001   1_554     S
Er431     V432    9.99   1_556     S
Er431     Er430    10.001   1_556     S
V432     Er431    9.99   1_554     S
V432     Ce436    9.996   .     S
Ce433     Ce435    9.993   .     S
Ce433     Ce434    9.993   1_554     S
Ce434     Ce436    9.993   1_556     S
Ce434     Ce433    9.993   1_556     S
Ce434     V439    9.996   .     S
Ce435     Ce436    9.993   .     S
Ce436     Ce434    9.993   1_554     S
Er437     V439    9.99   .     S
Er437     Er438    10.001   .     S
Er437     Er440    9.999   .     S
Er438     V439    9.99   .     S
Er438     Er441    9.999   .     S
V439     V442    9.992   .     S
Er440     V442    9.99   .     S
Er440     Er441    10.001   .     S
Er441     V442    9.99   .     S
V442     Ce461    9.996   .     S
Er443     V445    9.99   .     S
Er443     Er444    10.001   1_455     S
Er443     Er446    9.999   .     S
Er444     V445    9.99   1_655     S
Er444     Er443    10.001   1_655     S
Er444     Er447    9.999   .     S
V445     Er444    9.99   1_455     S
V445     V448    9.992   .     S
Er446     V448    9.99   .     S
Er446     Er447    10.001   1_455     S
Er447     V448    9.99   1_655     S
Er447     Er446    10.001   1_655     S
V448     Er447    9.99   1_455     S
V448     Ce462    9.996   .     S
Er449     V451    9.99   .     S
Er449     Er450    10.001   .     S
Er449     Er452    9.999   .     S
Er450     V451    9.99   .     S
Er450     Er453    9.999   .     S
V451     V454    9.992   .     S
V451     Ce463    9.996   .     S
Er452     V454    9.99   .     S
Er452     Er453    10.001   .     S
Er453     V454    9.99   .     S
Er455     V457    9.99   .     S
Er455     Er456    10.001   1_455     S
Er455     Er458    9.999   .     S
Er456     V457    9.99   1_655     S
Er456     Er455    10.001   1_655     S
Er456     Er459    9.999   .     S
V457     Er456    9.99   1_455     S
V457     V460    9.992   .     S
Er458     V460    9.99   .     S
Er458     Er459    10.001   1_455     S
Er459     V460    9.99   1_655     S
Er459     Er458    10.001   1_655     S
V460     Er459    9.99   1_455     S
V460     Ce464    9.996   .     S
Ce461     Ce464    9.993   1_655     S
Ce461     Ce462    9.993   1_655     S
Ce462     Ce463    9.993   .     S
Ce462     Ce461    9.993   1_455     S
Ce463     Ce464    9.993   .     S
Ce464     Ce461    9.993   1_455     S
Ti465     Ti466    10.002   .     S
Ti467     Ti468    10.002   .     S
Ti467     Er523    10.009   .     S
Ti469     Ti470    10.002   .     S
Ti469     Er537    10.009   .     S
Ti471     Ti472    10.002   .     S
Ti471     Er565    10.009   .     S
Ti473     Ti474    10.002   .     S
Ti473     Er535    10.009   .     S
Ti475     Ti476    10.002   .     S
Ti475     Er563    10.009   .     S
Ti477     Ti478    10.002   .     S
Ti477     Er566    10.009   .     S
Ti477     Ti575    10.013   .     S
Er479     V481    9.99   .     S
Er479     Er480    10.001   1_455     S
Er479     Er482    9.999   .     S
Er480     V481    9.99   1_655     S
Er480     Er479    10.001   1_655     S
Er480     Er483    9.999   .     S
V481     Er480    9.99   1_455     S
V481     V484    9.992   .     S
V481     Ce494    9.996   .     S
Er482     V484    9.99   .     S
Er482     Er483    10.001   1_455     S
Er483     V484    9.99   1_655     S
Er483     Er482    10.001   1_655     S
V484     Er483    9.99   1_455     S
V484     Ce516    9.996   .     S
Er485     V487    9.99   .     S
Er485     Er486    10.001   1_545     S
Er485     Er488    9.999   .     S
Er486     V487    9.99   1_565     S
Er486     Er485    10.001   1_565     S
Er486     Er489    9.999   .     S
V487     Er486    9.99   1_545     S
V487     V490    9.992   .     S
V487     Ce493    9.996   .     S
Er488     V490    9.99   .     S
Er488     Er489    10.001   1_545     S
Er489     V490    9.99   1_565     S
Er489     Er488    10.001   1_565     S
V490     Er489    9.99   1_545     S
V490     Ce496    9.996   .     S
Ce491     Ce494    9.993   1_655     S
Ce491     Ce492    9.993   1_645     S
Ce491     V555    9.996   .     S
Ce492     Ce493    9.993   1_565     S
Ce492     Ce491    9.993   1_465     S
Ce492     V527    9.996   .     S
Ce493     Ce492    9.993   1_545     S
Ce493     Ce494    9.993   .     S
Ce494     Ce491    9.993   1_455     S
Ce495     Ce498    9.993   1_565     S
Ce495     Ce496    9.993   1_565     S
Ce495     V536    9.996   .     S
Ce496     Ce497    9.993   .     S
Ce496     Ce495    9.993   1_545     S
Ce497     Ce498    9.993   .     S
Ce497     V511    9.996   .     S
Ce498     Ce495    9.993   1_545     S
Ce498     V504    9.996   .     S
Er499     V501    9.99   .     S
Er499     Er500    10.001   1_545     S
Er499     Er502    9.999   .     S
Er500     V501    9.99   1_565     S
Er500     Er499    10.001   1_565     S
Er500     Er503    9.999   .     S
V501     Er500    9.99   1_545     S
V501     V504    9.992   .     S
V501     Ce508    9.996   .     S
Er502     V504    9.99   .     S
Er502     Er503    10.001   1_545     S
Er503     V504    9.99   1_565     S
Er503     Er502    10.001   1_565     S
V504     Er503    9.99   1_545     S
Ce505     Ce508    9.993   1_565     S
Ce505     Ce506    9.993   1_465     S
Ce505     V539    9.996   .     S
Ce506     Ce507    9.993   1_655     S
Ce506     Ce505    9.993   1_645     S
Ce506     V567    9.996   .     S
Ce507     Ce506    9.993   1_455     S
Ce507     Ce508    9.993   .     S
Ce507     V521    9.996   .     S
Ce508     Ce505    9.993   1_545     S
Er509     V511    9.99   .     S
Er509     Er510    10.001   .     S
Er509     Er512    9.999   .     S
Er510     V511    9.99   .     S
Er510     Er513    9.999   .     S
V511     V514    9.992   .     S
Er512     V514    9.99   .     S
Er512     Er513    10.001   .     S
Er513     V514    9.99   .     S
V514     Ce517    9.996   .     S
Ce515     Ce518    9.993   1_655     S
Ce515     Ce516    9.993   1_655     S
Ce515     V564    9.996   .     S
Ce516     Ce517    9.993   .     S
Ce516     Ce515    9.993   1_455     S
Ce517     Ce518    9.993   .     S
Ce518     Ce515    9.993   1_455     S
Ce518     V524    9.996   .     S
Er519     V521    9.99   .     S
Er519     Er520    10.001   1_455     S
Er519     Er522    9.999   .     S
Er520     V521    9.99   1_655     S
Er520     Er519    10.001   1_655     S
Er520     Er523    9.999   .     S
V521     Er520    9.99   1_455     S
V521     V524    9.992   .     S
Er522     V524    9.99   .     S
Er522     Er523    10.001   1_455     S
Er523     V524    9.99   1_655     S
Er523     Er522    10.001   1_655     S
V524     Er523    9.99   1_455     S
Er525     V527    9.99   .     S
Er525     Er526    10.001   1_455     S
Er525     Er528    9.999   .     S
Er526     V527    9.99   1_655     S
Er526     Er525    10.001   1_655     S
Er526     Er529    9.999   .     S
V527     Er526    9.99   1_455     S
V527     V530    9.992   .     S
Er528     V530    9.99   .     S
Er528     Er529    10.001   1_455     S
Er529     V530    9.99   1_655     S
Er529     Er528    10.001   1_655     S
V530     Er529    9.99   1_455     S
V530     Ce543    9.996   .     S
Er531     V533    9.99   .     S
Er531     Er532    10.001   .     S
Er531     Er534    9.999   .     S
Er532     V533    9.99   .     S
Er532     Er535    9.999   .     S
V533     V536    9.992   .     S
V533     Ce545    9.996   .     S
Er534     V536    9.99   .     S
Er534     Er535    10.001   .     S
Er535     V536    9.99   .     S
Er537     V539    9.99   .     S
Er537     Er538    10.001   1_455     S
Er537     Er540    9.999   .     S
Er538     V539    9.99   1_655     S
Er538     Er537    10.001   1_655     S
Er538     Er541    9.999   .     S
Er538     Ti575    10.009   .     S
V539     Er538    9.99   1_455     S
V539     V542    9.992   .     S
Er540     V542    9.99   .     S
Er540     Er541    10.001   1_455     S
Er541     V542    9.99   1_655     S
Er541     Er540    10.001   1_655     S
V542     Er541    9.99   1_455     S
V542     Ce546    9.996   .     S
Ce543     Ce545    9.993   .     S
Ce543     Ce544    9.993   1_455     S
Ce544     Ce546    9.993   1_655     S
Ce544     Ce543    9.993   1_655     S
Ce544     V549    9.996   .     S
Ce545     Ce546    9.993   .     S
Ce546     Ce544    9.993   1_455     S
Er547     V549    9.99   .     S
Er547     Er548    10.001   .     S
Er547     Er550    9.999   .     S
Er548     V549    9.99   .     S
Er548     Er551    9.999   .     S
V549     V552    9.992   .     S
Er550     V552    9.99   .     S
Er550     Er551    10.001   .     S
Er551     V552    9.99   .     S
V552     Ce571    9.996   .     S
Er553     V555    9.99   .     S
Er553     Er554    10.001   1_545     S
Er553     Er556    9.999   .     S
Er554     V555    9.99   1_565     S
Er554     Er553    10.001   1_565     S
Er554     Er557    9.999   .     S
V555     Er554    9.99   1_545     S
V555     V558    9.992   .     S
Er556     V558    9.99   .     S
Er556     Er557    10.001   1_545     S
Er557     V558    9.99   1_565     S
Er557     Er556    10.001   1_565     S
V558     Er557    9.99   1_545     S
V558     Ce572    9.996   .     S
Er559     V561    9.99   .     S
Er559     Er560    10.001   .     S
Er559     Er562    9.999   .     S
Er560     V561    9.99   .     S
Er560     Er563    9.999   .     S
V561     V564    9.992   .     S
V561     Ce573    9.996   .     S
Er562     V564    9.99   .     S
Er562     Er563    10.001   .     S
Er563     V564    9.99   .     S
Er565     V567    9.99   .     S
Er565     Er566    10.001   1_545     S
Er565     Er568    9.999   .     S
Er566     V567    9.99   1_565     S
Er566     Er565    10.001   1_565     S
Er566     Er569    9.999   .     S
V567     Er566    9.99   1_545     S
V567     V570    9.992   .     S
Er568     V570    9.99   .     S
Er568     Er569    10.001   1_545     S
Er569     V570    9.99   1_565     S
Er569     Er568    10.001   1_565     S
V570     Er569    9.99   1_545     S
V570     Ce574    9.996   .     S
Ce571     Ce574    9.993   1_565     S
Ce571     Ce572    9.993   1_565     S
Ce572     Ce573    9.993   .     S
Ce572     Ce571    9.993   1_545     S
Ce573     Ce574    9.993   .     S
Ce574     Ce571    9.993   1_545     S
Ti575     Ti576    10.002   .     S
