data_dnla
_audit_creation_date              2020-02-04
_audit_creation_method            'Pymatgen'
_symmetry_space_group_name_H-M    'P1'
_symmetry_Int_Tables_number       1
loop_
_symmetry_equiv_pos_as_xyz
  x,y,z
_cell_length_a                    110.41
_cell_length_b                    110.41
_cell_length_c                    110.41
_cell_angle_alpha                 90.0
_cell_angle_beta                 90.0
_cell_angle_gamma                 90.0
loop_
_atom_site_label
_atom_site_type_symbol
_atom_site_fract_x
_atom_site_fract_y
_atom_site_fract_z
Ti1     Ti     0.1934   0.4926   0.5566
Ti2     Ti     0.1934   0.5566   0.4926
Ti3     Ti     0.2574   0.5566   0.5566
Ti4     Ti     0.8066   0.7426   0.8066
Ti5     Ti     0.7426   0.8066   0.8066
Ti6     Ti     0.8066   0.8066   0.7426
Ti7     Ti     0.5566   0.5566   0.2574
Ti8     Ti     0.5566   0.4926   0.1934
Ti9     Ti     0.4926   0.5566   0.1933
Ti10     Ti     0.4926   0.1934   0.5566
Ti11     Ti     0.5566   0.1934   0.4926
Ti12     Ti     0.5566   0.2574   0.5566
Ti13     Ti     0.2426   0.4434   0.9434
Ti14     Ti     0.3067   0.5074   0.9434
Ti15     Ti     0.3066   0.4434   0.0074
Ti16     Ti     0.2426   0.9434   0.4434
Ti17     Ti     0.3066   0.9434   0.5074
Ti18     Ti     0.3066   0.0074   0.4434
Ti19     Ti     0.5074   0.9434   0.3066
Ti20     Ti     0.4434   0.9434   0.2426
Ti21     Ti     0.4434   0.0074   0.3066
Ti22     Ti     0.1934   0.2574   0.1934
Ti23     Ti     0.1934   0.1934   0.2574
Ti24     Ti     0.2574   0.1934   0.1934
Ti25     Ti     0.1934   0.6934   0.7574
Ti26     Ti     0.2574   0.6934   0.6934
Ti27     Ti     0.1934   0.7574   0.6934
Ti28     Ti     0.7574   0.1934   0.6934
Ti29     Ti     0.6934   0.2574   0.6934
Ti30     Ti     0.6934   0.1934   0.7574
Ti31     Ti     0.4434   0.5074   0.8066
Ti32     Ti     0.5074   0.4434   0.8066
Ti33     Ti     0.4434   0.4434   0.7426
Ti34     Ti     0.5074   0.8066   0.4434
Ti35     Ti     0.4434   0.8066   0.5074
Ti36     Ti     0.4434   0.7426   0.4434
Ti37     Ti     0.2426   0.8066   0.3067
Ti38     Ti     0.3066   0.8066   0.2426
Ti39     Ti     0.3067   0.7426   0.3067
Ti40     Ti     0.5566   0.9926   0.6934
Ti41     Ti     0.4926   0.0566   0.6934
Ti42     Ti     0.5566   0.0566   0.7574
Ti43     Ti     0.8066   0.3066   0.2426
Ti44     Ti     0.7426   0.3066   0.3066
Ti45     Ti     0.8066   0.2426   0.3066
Ti46     Ti     0.2426   0.3066   0.8066
Ti47     Ti     0.3066   0.2426   0.8066
Ti48     Ti     0.3066   0.3066   0.7426
Ti49     Ti     0.6934   0.6934   0.2574
Ti50     Ti     0.7574   0.6934   0.1934
Ti51     Ti     0.6934   0.7574   0.1933
Ti52     Ti     0.9926   0.5566   0.6934
Ti53     Ti     0.0566   0.5566   0.7574
Ti54     Ti     0.0566   0.4926   0.6934
Ti55     Ti     0.5566   0.6934   0.9926
Ti56     Ti     0.5566   0.7574   0.0566
Ti57     Ti     0.4926   0.6934   0.0567
Ti58     Ti     0.6934   0.5566   0.9926
Ti59     Ti     0.6934   0.4926   0.0566
Ti60     Ti     0.7574   0.5566   0.0566
Ti61     Ti     0.6934   0.9926   0.5566
Ti62     Ti     0.6934   0.0566   0.4926
Ti63     Ti     0.7574   0.0566   0.5566
Ti64     Ti     0.9926   0.6934   0.5566
Ti65     Ti     0.0566   0.6934   0.4926
Ti66     Ti     0.0566   0.7574   0.5566
Ti67     Ti     0.0566   0.9926   0.1934
Ti68     Ti     0.9926   0.0566   0.1933
Ti69     Ti     0.0566   0.0566   0.2574
Ti70     Ti     0.1934   0.0566   0.9926
Ti71     Ti     0.1934   0.9926   0.0566
Ti72     Ti     0.2574   0.0566   0.0566
Ti73     Ti     0.9926   0.1934   0.0567
Ti74     Ti     0.0566   0.1934   0.9926
Ti75     Ti     0.0566   0.2574   0.0566
Ti76     Ti     0.8066   0.4434   0.5074
Ti77     Ti     0.8066   0.5074   0.4434
Ti78     Ti     0.7426   0.4434   0.4434
Ti79     Ti     0.9434   0.4434   0.2426
Ti80     Ti     0.9434   0.5074   0.3066
Ti81     Ti     0.0074   0.4434   0.3066
Ti82     Ti     0.9434   0.2426   0.4434
Ti83     Ti     0.9434   0.3066   0.5074
Ti84     Ti     0.0074   0.3067   0.4434
Ti85     Ti     0.4434   0.2426   0.9434
Ti86     Ti     0.5074   0.3067   0.9434
Ti87     Ti     0.4434   0.3066   0.0074
Ti88     Ti     0.9434   0.7426   0.9434
Ti89     Ti     0.9434   0.8066   0.0074
Ti90     Ti     0.0074   0.8066   0.9434
Ti91     Ti     0.9434   0.9434   0.7426
Ti92     Ti     0.9434   0.0074   0.8066
Ti93     Ti     0.0074   0.9434   0.8066
Ti94     Ti     0.8066   0.9434   0.0074
Ti95     Ti     0.7426   0.9434   0.9434
Ti96     Ti     0.8066   0.0074   0.9434
V97     V     0.343   0.343   0.668
V98     V     0.407   0.407   0.668
Er99     Er     0.343   0.343   0.5774
Er100     Er     0.407   0.407   0.5774
Ce101     Ce     0.4573   0.4573   0.5214
Ce102     Ce     0.2927   0.2927   0.5214
Er103     Er     0.407   0.1726   0.343
Er104     Er     0.343   0.1726   0.407
Ce105     Ce     0.2927   0.2286   0.4573
Ce106     Ce     0.4573   0.2286   0.2927
V107     V     0.407   0.082   0.343
V108     V     0.343   0.082   0.407
V109     V     0.668   0.343   0.343
V110     V     0.668   0.407   0.407
Er111     Er     0.5774   0.343   0.343
Er112     Er     0.5774   0.407   0.407
Ce113     Ce     0.5214   0.4573   0.4573
Ce114     Ce     0.5214   0.2927   0.2927
V115     V     0.082   0.407   0.343
V116     V     0.082   0.343   0.407
Er117     Er     0.1726   0.407   0.343
Er118     Er     0.1726   0.343   0.407
Ce119     Ce     0.2286   0.2927   0.4573
Ce120     Ce     0.2286   0.4573   0.2927
V121     V     0.657   0.332   0.657
V122     V     0.593   0.332   0.593
Er123     Er     0.593   0.4226   0.593
Er124     Er     0.657   0.4226   0.657
Ce125     Ce     0.5427   0.4786   0.5427
Ce126     Ce     0.7073   0.4786   0.7073
Er127     Er     0.343   0.407   0.1726
Er128     Er     0.407   0.343   0.1726
Ce129     Ce     0.2927   0.4573   0.2286
Ce130     Ce     0.4573   0.2927   0.2286
V131     V     0.343   0.407   0.082
V132     V     0.407   0.343   0.082
V133     V     0.657   0.418   0.093
V134     V     0.593   0.418   0.157
Er135     Er     0.657   0.3274   0.093
Er136     Er     0.593   0.3274   0.157
Ce137     Ce     0.5427   0.2714   0.2073
Ce138     Ce     0.7073   0.2714   0.0427
V139     V     0.418   0.093   0.657
V140     V     0.418   0.157   0.593
Er141     Er     0.3274   0.093   0.657
Er142     Er     0.3274   0.157   0.593
Ce143     Ce     0.2714   0.2073   0.5427
Ce144     Ce     0.2714   0.0427   0.7073
V145     V     0.407   0.668   0.407
V146     V     0.343   0.668   0.343
Er147     Er     0.407   0.5774   0.407
Er148     Er     0.343   0.5774   0.343
Ce149     Ce     0.2927   0.5214   0.2927
Ce150     Ce     0.4573   0.5214   0.4573
V151     V     0.657   0.093   0.418
V152     V     0.593   0.157   0.418
Er153     Er     0.657   0.093   0.3274
Er154     Er     0.593   0.157   0.3274
Ce155     Ce     0.5427   0.2073   0.2714
Ce156     Ce     0.7073   0.0427   0.2714
V157     V     0.332   0.093   0.093
V158     V     0.332   0.157   0.157
Er159     Er     0.4226   0.093   0.093
Er160     Er     0.4226   0.157   0.157
Ce161     Ce     0.4786   0.0427   0.0427
Ce162     Ce     0.4786   0.2073   0.2073
Er163     Er     0.157   0.3274   0.593
Er164     Er     0.093   0.3274   0.657
Ce165     Ce     0.2073   0.2714   0.5427
Ce166     Ce     0.0427   0.2714   0.7073
V167     V     0.157   0.418   0.593
V168     V     0.093   0.418   0.657
Er169     Er     0.157   0.157   0.4226
Er170     Er     0.093   0.093   0.4226
Ce171     Ce     0.0427   0.0427   0.4786
Ce172     Ce     0.2073   0.2073   0.4786
V173     V     0.157   0.157   0.332
V174     V     0.093   0.093   0.332
V175     V     0.332   0.657   0.657
V176     V     0.332   0.593   0.593
Er177     Er     0.4226   0.657   0.657
Er178     Er     0.4226   0.593   0.593
Ce179     Ce     0.4786   0.5427   0.5427
Ce180     Ce     0.4786   0.7073   0.7073
V181     V     0.657   0.657   0.332
V182     V     0.593   0.593   0.332
Er183     Er     0.657   0.657   0.4226
Er184     Er     0.593   0.593   0.4226
Ce185     Ce     0.5427   0.5427   0.4786
Ce186     Ce     0.7073   0.7073   0.4786
V187     V     0.832   0.093   0.593
V188     V     0.832   0.157   0.657
Er189     Er     0.9226   0.093   0.593
Er190     Er     0.9226   0.157   0.657
Ce191     Ce     0.9786   0.0427   0.5427
Ce192     Ce     0.9786   0.2073   0.7073
V193     V     0.157   0.657   0.832
V194     V     0.093   0.593   0.832
Er195     Er     0.157   0.657   0.9226
Er196     Er     0.093   0.593   0.9226
Ce197     Ce     0.0427   0.5427   0.9786
Ce198     Ce     0.2073   0.7073   0.9786
V199     V     0.157   0.832   0.657
V200     V     0.093   0.832   0.593
Er201     Er     0.157   0.9226   0.657
Er202     Er     0.093   0.9226   0.593
Ce203     Ce     0.0427   0.9786   0.5427
Ce204     Ce     0.2073   0.9786   0.7073
V205     V     0.657   0.157   0.832
V206     V     0.593   0.093   0.832
Er207     Er     0.657   0.157   0.9226
Er208     Er     0.593   0.093   0.9226
Ce209     Ce     0.5427   0.0427   0.9786
Ce210     Ce     0.7073   0.2073   0.9786
V211     V     0.832   0.657   0.157
V212     V     0.832   0.593   0.093
Er213     Er     0.9226   0.657   0.157
Er214     Er     0.9226   0.593   0.093
Ce215     Ce     0.9786   0.5427   0.0427
Ce216     Ce     0.9786   0.7073   0.2073
Er217     Er     0.157   0.593   0.3274
Er218     Er     0.093   0.657   0.3274
Ce219     Ce     0.2073   0.5427   0.2714
Ce220     Ce     0.0427   0.7073   0.2714
V221     V     0.157   0.593   0.418
V222     V     0.093   0.657   0.418
V223     V     0.157   0.332   0.157
V224     V     0.093   0.332   0.093
Er225     Er     0.157   0.4226   0.157
Er226     Er     0.093   0.4226   0.093
Ce227     Ce     0.0427   0.4786   0.0427
Ce228     Ce     0.2073   0.4786   0.2073
V229     V     0.418   0.657   0.093
V230     V     0.418   0.593   0.157
Er231     Er     0.3274   0.657   0.093
Er232     Er     0.3274   0.593   0.157
Ce233     Ce     0.2714   0.5427   0.2073
Ce234     Ce     0.2714   0.7073   0.0427
V235     V     0.657   0.832   0.157
V236     V     0.593   0.832   0.093
Er237     Er     0.657   0.9226   0.157
Er238     Er     0.593   0.9226   0.093
Ce239     Ce     0.5427   0.9786   0.0427
Ce240     Ce     0.7073   0.9786   0.2073
V241     V     0.407   0.582   0.843
V242     V     0.343   0.582   0.907
Er243     Er     0.407   0.6726   0.843
Er244     Er     0.343   0.6726   0.907
Ce245     Ce     0.2927   0.7286   0.9573
Ce246     Ce     0.4573   0.7286   0.7927
V247     V     0.668   0.843   0.843
V248     V     0.668   0.907   0.907
Er249     Er     0.5774   0.907   0.907
Er250     Er     0.5774   0.843   0.843
Ce251     Ce     0.5214   0.9573   0.9573
Ce252     Ce     0.5214   0.7927   0.7927
Er253     Er     0.657   0.593   0.8274
Er254     Er     0.593   0.657   0.8274
Ce255     Ce     0.7073   0.5427   0.7714
Ce256     Ce     0.5427   0.7073   0.7714
V257     V     0.657   0.593   0.918
V258     V     0.593   0.657   0.918
V259     V     0.343   0.907   0.582
V260     V     0.407   0.843   0.582
Er261     Er     0.343   0.907   0.6726
Er262     Er     0.407   0.843   0.6726
Ce263     Ce     0.2927   0.9573   0.7286
Ce264     Ce     0.4573   0.7927   0.7286
Er265     Er     0.343   0.0774   0.843
Er266     Er     0.407   0.0774   0.907
Ce267     Ce     0.4573   0.0214   0.9573
Ce268     Ce     0.2927   0.0213   0.7927
V269     V     0.343   0.168   0.843
V270     V     0.407   0.168   0.907
Er271     Er     0.843   0.343   0.0774
Er272     Er     0.907   0.407   0.0774
Ce273     Ce     0.9573   0.4573   0.0214
Ce274     Ce     0.7927   0.2927   0.0214
V275     V     0.843   0.343   0.168
V276     V     0.907   0.407   0.168
Er277     Er     0.843   0.407   0.6726
Er278     Er     0.907   0.343   0.6726
Ce279     Ce     0.9573   0.2927   0.7286
Ce280     Ce     0.7927   0.4573   0.7286
V281     V     0.843   0.407   0.582
V282     V     0.907   0.343   0.582
Er283     Er     0.6726   0.407   0.843
Er284     Er     0.6726   0.343   0.907
Ce285     Ce     0.7286   0.2927   0.9573
Ce286     Ce     0.7286   0.4573   0.7927
V287     V     0.582   0.407   0.843
V288     V     0.582   0.343   0.907
V289     V     0.843   0.668   0.843
V290     V     0.907   0.668   0.907
Er291     Er     0.843   0.5774   0.843
Er292     Er     0.907   0.5774   0.907
Ce293     Ce     0.9573   0.5214   0.9573
Ce294     Ce     0.7927   0.5214   0.7927
Er295     Er     0.0774   0.343   0.843
Er296     Er     0.0774   0.407   0.907
Ce297     Ce     0.0214   0.4573   0.9573
Ce298     Ce     0.0214   0.2927   0.7927
V299     V     0.168   0.343   0.843
V300     V     0.168   0.407   0.907
Er301     Er     0.907   0.1726   0.843
Er302     Er     0.843   0.1726   0.907
Ce303     Ce     0.7927   0.2286   0.9573
Ce304     Ce     0.9573   0.2286   0.7927
V305     V     0.907   0.082   0.843
V306     V     0.843   0.082   0.907
Er307     Er     0.343   0.843   0.0774
Er308     Er     0.407   0.907   0.0774
Ce309     Ce     0.4573   0.9573   0.0214
Ce310     Ce     0.2927   0.7927   0.0213
V311     V     0.343   0.843   0.168
V312     V     0.407   0.907   0.168
V313     V     0.082   0.907   0.843
V314     V     0.082   0.843   0.907
Er315     Er     0.1726   0.907   0.843
Er316     Er     0.1726   0.843   0.907
Ce317     Ce     0.2286   0.7927   0.9573
Ce318     Ce     0.2286   0.9573   0.7927
V319     V     0.157   0.093   0.918
V320     V     0.093   0.157   0.918
Er321     Er     0.157   0.093   0.8274
Er322     Er     0.093   0.157   0.8274
Ce323     Ce     0.0427   0.2073   0.7714
Ce324     Ce     0.2073   0.0427   0.7714
Er325     Er     0.8274   0.157   0.093
Er326     Er     0.8274   0.093   0.157
Ce327     Ce     0.7714   0.0427   0.2073
Ce328     Ce     0.7714   0.2073   0.0427
V329     V     0.918   0.093   0.157
V330     V     0.918   0.157   0.093
V331     V     0.093   0.918   0.157
V332     V     0.157   0.918   0.093
Er333     Er     0.157   0.8274   0.093
Er334     Er     0.093   0.8274   0.157
Ce335     Ce     0.0427   0.7714   0.2073
Ce336     Ce     0.2073   0.7714   0.0427
Er337     Er     0.0774   0.843   0.343
Er338     Er     0.0774   0.907   0.407
Ce339     Ce     0.0214   0.9573   0.4573
Ce340     Ce     0.0214   0.7927   0.2927
V341     V     0.168   0.843   0.343
V342     V     0.168   0.907   0.407
Er343     Er     0.843   0.0774   0.343
Er344     Er     0.907   0.0774   0.407
Ce345     Ce     0.9573   0.0214   0.4573
Ce346     Ce     0.7927   0.0213   0.2927
V347     V     0.843   0.168   0.343
V348     V     0.907   0.168   0.407
Er349     Er     0.843   0.907   0.1726
Er350     Er     0.907   0.843   0.1726
Ce351     Ce     0.9573   0.7927   0.2286
Ce352     Ce     0.7927   0.9573   0.2286
V353     V     0.843   0.907   0.082
V354     V     0.907   0.843   0.082
Er355     Er     0.8274   0.593   0.657
Er356     Er     0.8274   0.657   0.593
Ce357     Ce     0.7714   0.7073   0.5427
Ce358     Ce     0.7714   0.5427   0.7073
V359     V     0.918   0.593   0.657
V360     V     0.918   0.657   0.593
Er361     Er     0.593   0.8274   0.657
Er362     Er     0.657   0.8274   0.593
Ce363     Ce     0.7073   0.7714   0.5427
Ce364     Ce     0.5427   0.7714   0.7073
V365     V     0.657   0.918   0.593
V366     V     0.593   0.918   0.657
Er367     Er     0.6726   0.843   0.407
Er368     Er     0.6726   0.907   0.343
Ce369     Ce     0.7286   0.9573   0.2927
Ce370     Ce     0.7286   0.7927   0.4573
V371     V     0.582   0.843   0.407
V372     V     0.582   0.907   0.343
Er373     Er     0.843   0.6726   0.407
Er374     Er     0.907   0.6726   0.343
Ce375     Ce     0.9573   0.7286   0.2927
Ce376     Ce     0.7927   0.7286   0.4573
V377     V     0.843   0.582   0.407
V378     V     0.907   0.582   0.343
V379     V     0.843   0.843   0.668
V380     V     0.907   0.907   0.668
Er381     Er     0.843   0.843   0.5774
Er382     Er     0.907   0.907   0.5774
Ce383     Ce     0.9573   0.9573   0.5214
Ce384     Ce     0.7927   0.7927   0.5214
loop_
_geom_bond_atom_site_label_1
_geom_bond_atom_site_label_2
_geom_bond_distance
_geom_bond_site_symmetry_2
_ccdc_geom_bond_type
Ti1     Ti3    9.999   .     S
Ti1     Ti2    9.999   .     S
Ti1     V167    10.0   .     S
Ti2     Ti3    9.999   .     S
Ti2     V221    10.0   .     S
Ti3     V176    10.0   .     S
Ti4     Ti6    9.999   .     S
Ti4     Ti5    9.999   .     S
Ti4     V289    10.0   .     S
Ti5     Ti6    9.999   .     S
Ti5     V247    10.0   .     S
Ti6     V379    10.0   .     S
Ti7     Ti9    9.999   .     S
Ti7     Ti8    9.999   .     S
Ti7     V182    10.0   .     S
Ti8     Ti9    9.999   .     S
Ti8     V134    10.0   .     S
Ti9     V230    10.0   .     S
Ti10     Ti12    9.999   .     S
Ti10     Ti11    9.999   .     S
Ti10     V140    10.0   .     S
Ti11     Ti12    9.999   .     S
Ti11     V152    10.0   .     S
Ti12     V122    10.0   .     S
Ti13     Ti15    9.999   1_556     S
Ti13     Ti14    9.999   .     S
Ti13     V300    10.0   .     S
Ti14     Ti15    9.999   1_556     S
Ti14     V242    10.0   .     S
Ti15     Ti13    9.999   1_554     S
Ti15     Ti14    9.999   1_554     S
Ti15     V131    10.0   .     S
Ti16     Ti18    9.999   1_565     S
Ti16     Ti17    9.999   .     S
Ti16     V342    10.0   .     S
Ti17     Ti18    9.999   1_565     S
Ti17     V259    10.0   .     S
Ti18     Ti17    9.999   1_545     S
Ti18     Ti16    9.999   1_545     S
Ti18     V108    10.0   .     S
Ti19     Ti21    9.999   1_565     S
Ti19     Ti20    9.999   .     S
Ti19     V372    10.0   .     S
Ti20     Ti21    9.999   1_565     S
Ti20     V312    10.0   .     S
Ti21     Ti19    9.999   1_545     S
Ti21     Ti20    9.999   1_545     S
Ti21     V107    10.0   .     S
Ti22     Ti24    9.999   .     S
Ti22     Ti23    9.999   .     S
Ti22     V223    10.0   .     S
Ti23     Ti24    9.999   .     S
Ti23     V173    10.0   .     S
Ti24     V158    10.0   .     S
Ti25     Ti26    9.999   .     S
Ti25     Ti27    9.999   .     S
Ti25     V193    10.0   .     S
Ti26     Ti27    9.999   .     S
Ti26     V175    10.0   .     S
Ti27     V199    10.0   .     S
Ti28     Ti30    9.999   .     S
Ti28     Ti29    9.999   .     S
Ti28     V188    10.0   .     S
Ti29     Ti30    9.999   .     S
Ti29     V121    10.0   .     S
Ti30     V205    10.0   .     S
Ti31     Ti32    9.999   .     S
Ti31     Ti33    9.999   .     S
Ti31     V241    10.0   .     S
Ti32     Ti33    9.999   .     S
Ti32     V287    10.0   .     S
Ti33     V98    10.0   .     S
Ti34     Ti36    9.999   .     S
Ti34     Ti35    9.999   .     S
Ti34     V371    10.0   .     S
Ti35     Ti36    9.999   .     S
Ti35     V260    10.0   .     S
Ti36     V145    10.0   .     S
Ti37     Ti39    9.999   .     S
Ti37     Ti38    9.999   .     S
Ti37     V341    10.0   .     S
Ti38     Ti39    9.999   .     S
Ti38     V311    10.0   .     S
Ti39     V146    10.0   .     S
Ti40     Ti42    9.999   1_565     S
Ti40     Ti41    9.999   1_565     S
Ti40     V366    10.0   .     S
Ti41     Ti42    9.999   .     S
Ti41     Ti40    9.999   1_545     S
Ti41     V139    10.0   .     S
Ti42     Ti40    9.999   1_545     S
Ti42     V206    10.0   .     S
Ti43     Ti44    9.999   .     S
Ti43     Ti45    9.999   .     S
Ti43     V275    10.0   .     S
Ti44     Ti45    9.999   .     S
Ti44     V109    10.0   .     S
Ti45     V347    10.0   .     S
Ti46     Ti48    9.999   .     S
Ti46     Ti47    9.999   .     S
Ti46     V299    10.0   .     S
Ti47     Ti48    9.999   .     S
Ti47     V269    10.0   .     S
Ti48     V97    10.0   .     S
Ti49     Ti51    9.999   .     S
Ti49     Ti50    9.999   .     S
Ti49     V181    10.0   .     S
Ti50     Ti51    9.999   .     S
Ti50     V211    10.0   .     S
Ti51     V235    10.0   .     S
Ti52     Ti53    9.999   1_655     S
Ti52     Ti54    9.999   1_655     S
Ti52     V359    10.0   .     S
Ti53     Ti52    9.999   1_455     S
Ti53     Ti54    9.999   .     S
Ti53     V194    10.0   .     S
Ti54     Ti52    9.999   1_455     S
Ti54     V168    10.0   .     S
Ti55     Ti56    9.999   1_556     S
Ti55     Ti57    9.999   1_556     S
Ti55     V258    10.0   .     S
Ti56     Ti55    9.999   1_554     S
Ti56     Ti57    9.999   .     S
Ti56     V236    10.0   .     S
Ti57     Ti55    9.999   1_554     S
Ti57     V229    10.0   .     S
Ti58     Ti60    9.999   1_556     S
Ti58     Ti59    9.999   1_556     S
Ti58     V257    10.0   .     S
Ti59     Ti58    9.999   1_554     S
Ti59     Ti60    9.999   .     S
Ti59     V133    10.0   .     S
Ti60     Ti58    9.999   1_554     S
Ti60     V212    10.0   .     S
Ti61     Ti62    9.999   1_565     S
Ti61     Ti63    9.999   1_565     S
Ti61     V365    10.0   .     S
Ti62     Ti61    9.999   1_545     S
Ti62     Ti63    9.999   .     S
Ti62     V151    10.0   .     S
Ti63     Ti61    9.999   1_545     S
Ti63     V187    10.0   .     S
Ti64     Ti66    9.999   1_655     S
Ti64     Ti65    9.999   1_655     S
Ti64     V360    10.0   .     S
Ti65     Ti64    9.999   1_455     S
Ti65     Ti66    9.999   .     S
Ti65     V222    10.0   .     S
Ti66     Ti64    9.999   1_455     S
Ti66     V200    10.0   .     S
Ti67     Ti69    9.999   1_565     S
Ti67     Ti68    9.999   1_465     S
Ti67     V331    10.0   .     S
Ti68     Ti67    9.999   1_645     S
Ti68     Ti69    9.999   1_655     S
Ti68     V329    10.0   .     S
Ti69     Ti67    9.999   1_545     S
Ti69     Ti68    9.999   1_455     S
Ti69     V174    10.0   .     S
Ti70     Ti72    9.999   1_556     S
Ti70     Ti71    9.999   1_546     S
Ti70     V319    10.0   .     S
Ti71     Ti72    9.999   1_565     S
Ti71     Ti70    9.999   1_564     S
Ti71     V332    10.0   .     S
Ti72     Ti70    9.999   1_554     S
Ti72     Ti71    9.999   1_545     S
Ti72     V157    10.0   .     S
Ti73     Ti75    9.999   1_655     S
Ti73     Ti74    9.999   1_654     S
Ti73     V330    10.0   .     S
Ti74     Ti75    9.999   1_556     S
Ti74     Ti73    9.999   1_456     S
Ti74     V320    10.0   .     S
Ti75     Ti73    9.999   1_455     S
Ti75     Ti74    9.999   1_554     S
Ti75     V224    10.0   .     S
Ti76     Ti78    9.999   .     S
Ti76     Ti77    9.999   .     S
Ti76     V281    10.0   .     S
Ti77     Ti78    9.999   .     S
Ti77     V377    10.0   .     S
Ti78     V110    10.0   .     S
Ti79     Ti80    9.999   .     S
Ti79     Ti81    9.999   1_655     S
Ti79     V276    10.0   .     S
Ti80     Ti81    9.999   1_655     S
Ti80     V378    10.0   .     S
Ti81     Ti79    9.999   1_455     S
Ti81     Ti80    9.999   1_455     S
Ti81     V115    10.0   .     S
Ti82     Ti83    9.999   .     S
Ti82     Ti84    9.999   1_655     S
Ti82     V348    10.0   .     S
Ti83     Ti84    9.999   1_655     S
Ti83     V282    10.0   .     S
Ti84     Ti82    9.999   1_455     S
Ti84     Ti83    9.999   1_455     S
Ti84     V116    10.0   .     S
Ti85     Ti86    9.999   .     S
Ti85     Ti87    9.999   1_556     S
Ti85     V270    10.0   .     S
Ti86     Ti87    9.999   1_556     S
Ti86     V288    10.0   .     S
Ti87     Ti85    9.999   1_554     S
Ti87     Ti86    9.999   1_554     S
Ti87     V132    10.0   .     S
Ti88     Ti89    9.999   1_556     S
Ti88     Ti90    9.999   1_655     S
Ti88     V290    10.0   .     S
Ti89     Ti88    9.999   1_554     S
Ti89     Ti90    9.999   1_654     S
Ti89     V354    10.0   .     S
Ti90     Ti88    9.999   1_455     S
Ti90     Ti89    9.999   1_456     S
Ti90     V314    10.0   .     S
Ti91     Ti93    9.999   1_655     S
Ti91     Ti92    9.999   1_565     S
Ti91     V380    10.0   .     S
Ti92     Ti91    9.999   1_545     S
Ti92     Ti93    9.999   1_645     S
Ti92     V305    10.0   .     S
Ti93     Ti91    9.999   1_455     S
Ti93     Ti92    9.999   1_465     S
Ti93     V313    10.0   .     S
Ti94     Ti95    9.999   1_554     S
Ti94     Ti96    9.999   1_564     S
Ti94     V353    10.0   .     S
Ti95     Ti94    9.999   1_556     S
Ti95     Ti96    9.999   1_565     S
Ti95     V248    10.0   .     S
Ti96     Ti95    9.999   1_545     S
Ti96     Ti94    9.999   1_546     S
Ti96     V306    10.0   .     S
V97     V98    9.999   .     S
V97     Er99    10.001   .     S
V98     Er100    10.001   .     S
Er99     Ce102    9.999   .     S
Er99     Er100    9.999   .     S
Er100     Ce101    9.999   .     S
Ce101     Ce113    10.001   .     S
Ce101     Ce125    10.001   .     S
Ce101     Ce179    10.001   .     S
Ce101     Ce150    10.001   .     S
Ce102     Ce165    10.001   .     S
Ce102     Ce143    10.001   .     S
Ce102     Ce105    10.001   .     S
Ce102     Ce119    10.001   .     S
Er103     Ce106    9.999   .     S
Er103     Er104    9.999   .     S
Er103     V107    10.001   .     S
Er104     Ce105    9.999   .     S
Er104     V108    10.001   .     S
Ce105     Ce143    10.001   .     S
Ce105     Ce172    10.001   .     S
Ce105     Ce119    10.001   .     S
Ce106     Ce162    10.001   .     S
Ce106     Ce130    10.001   .     S
Ce106     Ce155    10.001   .     S
Ce106     Ce114    10.001   .     S
V107     V108    9.999   .     S
V109     V110    9.999   .     S
V109     Er111    10.001   .     S
V110     Er112    10.001   .     S
Er111     Ce114    9.999   .     S
Er111     Er112    9.999   .     S
Er112     Ce113    9.999   .     S
Ce113     Ce125    10.001   .     S
Ce113     Ce185    10.001   .     S
Ce113     Ce150    10.001   .     S
Ce114     Ce155    10.001   .     S
Ce114     Ce137    10.001   .     S
Ce114     Ce130    10.001   .     S
V115     V116    9.999   .     S
V115     Er117    10.001   .     S
V116     Er118    10.001   .     S
Er117     Ce120    9.999   .     S
Er117     Er118    9.999   .     S
Er118     Ce119    9.999   .     S
Ce119     Ce172    10.001   .     S
Ce119     Ce165    10.001   .     S
Ce120     Ce129    10.001   .     S
Ce120     Ce219    10.001   .     S
Ce120     Ce149    10.001   .     S
Ce120     Ce228    10.001   .     S
V121     V122    9.999   .     S
V121     Er124    10.001   .     S
V122     Er123    10.001   .     S
Er123     Ce125    9.999   .     S
Er123     Er124    9.999   .     S
Er124     Ce126    9.999   .     S
Ce125     Ce185    10.001   .     S
Ce125     Ce179    10.001   .     S
Ce126     Ce286    10.001   .     S
Ce126     Ce280    10.001   .     S
Ce126     Ce255    10.001   .     S
Ce126     Ce358    10.001   .     S
Er127     Ce129    9.999   .     S
Er127     Er128    9.999   .     S
Er127     V131    10.001   .     S
Er128     Ce130    9.999   .     S
Er128     V132    10.001   .     S
Ce129     Ce233    10.001   .     S
Ce129     Ce149    10.001   .     S
Ce129     Ce228    10.001   .     S
Ce130     Ce137    10.001   .     S
Ce130     Ce162    10.001   .     S
V131     V132    9.999   .     S
V133     V134    9.999   .     S
V133     Er135    10.001   .     S
V134     Er136    10.001   .     S
Er135     Ce138    9.999   .     S
Er135     Er136    9.999   .     S
Er136     Ce137    9.999   .     S
Ce137     Ce155    10.001   .     S
Ce137     Ce162    10.001   .     S
Ce138     Ce285    10.001   1_554     S
Ce138     Ce274    10.001   .     S
Ce138     Ce328    10.001   .     S
Ce138     Ce210    10.001   1_554     S
V139     V140    9.999   .     S
V139     Er141    10.001   .     S
V140     Er142    10.001   .     S
Er141     Ce144    9.999   .     S
Er141     Er142    9.999   .     S
Er142     Ce143    9.999   .     S
Ce143     Ce165    10.001   .     S
Ce143     Ce172    10.001   .     S
Ce144     Ce263    10.001   1_545     S
Ce144     Ce268    10.001   .     S
Ce144     Ce324    10.001   .     S
Ce144     Ce204    10.001   1_545     S
V145     V146    9.999   .     S
V145     Er147    10.001   .     S
V146     Er148    10.001   .     S
Er147     Ce150    9.999   .     S
Er147     Er148    9.999   .     S
Er148     Ce149    9.999   .     S
Ce149     Ce233    10.001   .     S
Ce149     Ce219    10.001   .     S
Ce150     Ce179    10.001   .     S
Ce150     Ce185    10.001   .     S
V151     V152    9.999   .     S
V151     Er153    10.001   .     S
V152     Er154    10.001   .     S
Er153     Ce156    9.999   .     S
Er153     Er154    9.999   .     S
Er154     Ce155    9.999   .     S
Ce155     Ce162    10.001   .     S
Ce156     Ce369    10.001   1_545     S
Ce156     Ce240    10.001   1_545     S
Ce156     Ce327    10.001   .     S
Ce156     Ce346    10.001   .     S
V157     V158    9.999   .     S
V157     Er159    10.001   .     S
V158     Er160    10.001   .     S
Er159     Ce161    9.999   .     S
Er159     Er160    9.999   .     S
Er160     Ce162    9.999   .     S
Ce161     Ce309    10.001   1_545     S
Ce161     Ce267    10.001   1_554     S
Ce161     Ce239    10.001   1_545     S
Ce161     Ce209    10.001   1_554     S
Er163     Ce165    9.999   .     S
Er163     Er164    9.999   .     S
Er163     V167    10.001   .     S
Er164     Ce166    9.999   .     S
Er164     V168    10.001   .     S
Ce165     Ce172    10.001   .     S
Ce166     Ce323    10.001   .     S
Ce166     Ce298    10.001   .     S
Ce166     Ce279    10.001   1_455     S
Ce166     Ce192    10.001   1_455     S
V167     V168    9.999   .     S
Er169     Ce172    9.999   .     S
Er169     Er170    9.999   .     S
Er169     V173    10.001   .     S
Er170     Ce171    9.999   .     S
Er170     V174    10.001   .     S
Ce171     Ce339    10.001   1_545     S
Ce171     Ce345    10.001   1_455     S
Ce171     Ce203    10.001   1_545     S
Ce171     Ce191    10.001   1_455     S
V173     V174    9.999   .     S
V175     V176    9.999   .     S
V175     Er177    10.001   .     S
V176     Er178    10.001   .     S
Er177     Ce180    9.999   .     S
Er177     Er178    9.999   .     S
Er178     Ce179    9.999   .     S
Ce179     Ce185    10.001   .     S
Ce180     Ce364    10.001   .     S
Ce180     Ce256    10.001   .     S
Ce180     Ce246    10.001   .     S
Ce180     Ce264    10.001   .     S
V181     V182    9.999   .     S
V181     Er183    10.001   .     S
V182     Er184    10.001   .     S
Er183     Ce186    9.999   .     S
Er183     Er184    9.999   .     S
Er184     Ce185    9.999   .     S
Ce186     Ce357    10.001   .     S
Ce186     Ce370    10.001   .     S
Ce186     Ce376    10.001   .     S
Ce186     Ce363    10.001   .     S
V187     V188    9.999   .     S
V187     Er189    10.001   .     S
V188     Er190    10.001   .     S
Er189     Ce191    9.999   .     S
Er189     Er190    9.999   .     S
Er190     Ce192    9.999   .     S
Ce191     Ce345    10.001   .     S
Ce191     Ce383    10.001   1_545     S
Ce191     Ce171    10.001   1_655     S
Ce191     Ce203    10.001   1_645     S
Ce192     Ce323    10.001   1_655     S
Ce192     Ce304    10.001   .     S
Ce192     Ce279    10.001   .     S
Ce192     Ce166    10.001   1_655     S
V193     V194    9.999   .     S
V193     Er195    10.001   .     S
V194     Er196    10.001   .     S
Er195     Ce198    9.999   .     S
Er195     Er196    9.999   .     S
Er196     Ce197    9.999   .     S
Ce197     Ce297    10.001   .     S
Ce197     Ce293    10.001   1_455     S
Ce197     Ce227    10.001   1_556     S
Ce197     Ce215    10.001   1_456     S
Ce198     Ce245    10.001   .     S
Ce198     Ce317    10.001   .     S
Ce198     Ce336    10.001   1_556     S
Ce198     Ce234    10.001   1_556     S
V199     V200    9.999   .     S
V199     Er201    10.001   .     S
V200     Er202    10.001   .     S
Er201     Ce204    9.999   .     S
Er201     Er202    9.999   .     S
Er202     Ce203    9.999   .     S
Ce203     Ce339    10.001   .     S
Ce203     Ce383    10.001   1_455     S
Ce203     Ce171    10.001   1_565     S
Ce203     Ce191    10.001   1_465     S
Ce204     Ce263    10.001   .     S
Ce204     Ce318    10.001   .     S
Ce204     Ce324    10.001   1_565     S
Ce204     Ce144    10.001   1_565     S
V205     V206    9.999   .     S
V205     Er207    10.001   .     S
V206     Er208    10.001   .     S
Er207     Ce210    9.999   .     S
Er207     Er208    9.999   .     S
Er208     Ce209    9.999   .     S
Ce209     Ce267    10.001   .     S
Ce209     Ce251    10.001   1_545     S
Ce209     Ce161    10.001   1_556     S
Ce209     Ce239    10.001   1_546     S
Ce210     Ce285    10.001   .     S
Ce210     Ce303    10.001   .     S
Ce210     Ce328    10.001   1_556     S
Ce210     Ce138    10.001   1_556     S
V211     V212    9.999   .     S
V211     Er213    10.001   .     S
V212     Er214    10.001   .     S
Er213     Ce216    9.999   .     S
Er213     Er214    9.999   .     S
Er214     Ce215    9.999   .     S
Ce215     Ce293    10.001   1_554     S
Ce215     Ce273    10.001   .     S
Ce215     Ce227    10.001   1_655     S
Ce215     Ce197    10.001   1_654     S
Ce216     Ce335    10.001   1_655     S
Ce216     Ce375    10.001   .     S
Ce216     Ce351    10.001   .     S
Ce216     Ce220    10.001   1_655     S
Er217     Ce219    9.999   .     S
Er217     Er218    9.999   .     S
Er217     V221    10.001   .     S
Er218     Ce220    9.999   .     S
Er218     V222    10.001   .     S
Ce219     Ce233    10.001   .     S
Ce219     Ce228    10.001   .     S
Ce220     Ce375    10.001   1_455     S
Ce220     Ce340    10.001   .     S
Ce220     Ce335    10.001   .     S
Ce220     Ce216    10.001   1_455     S
V221     V222    9.999   .     S
V223     V224    9.999   .     S
V223     Er225    10.001   .     S
V224     Er226    10.001   .     S
Er225     Ce228    9.999   .     S
Er225     Er226    9.999   .     S
Er226     Ce227    9.999   .     S
Ce227     Ce273    10.001   1_455     S
Ce227     Ce297    10.001   1_554     S
Ce227     Ce215    10.001   1_455     S
Ce227     Ce197    10.001   1_554     S
Ce228     Ce233    10.001   .     S
V229     V230    9.999   .     S
V229     Er231    10.001   .     S
V230     Er232    10.001   .     S
Er231     Ce234    9.999   .     S
Er231     Er232    9.999   .     S
Er232     Ce233    9.999   .     S
Ce234     Ce336    10.001   .     S
Ce234     Ce245    10.001   1_554     S
Ce234     Ce198    10.001   1_554     S
Ce234     Ce310    10.001   .     S
V235     V236    9.999   .     S
V235     Er237    10.001   .     S
V236     Er238    10.001   .     S
Er237     Ce240    9.999   .     S
Er237     Er238    9.999   .     S
Er238     Ce239    9.999   .     S
Ce239     Ce251    10.001   1_554     S
Ce239     Ce309    10.001   .     S
Ce239     Ce161    10.001   1_565     S
Ce239     Ce209    10.001   1_564     S
Ce240     Ce369    10.001   .     S
Ce240     Ce352    10.001   .     S
Ce240     Ce156    10.001   1_565     S
Ce240     Ce327    10.001   1_565     S
V241     V242    9.999   .     S
V241     Er243    10.001   .     S
V242     Er244    10.001   .     S
Er243     Ce246    9.999   .     S
Er243     Er244    9.999   .     S
Er244     Ce245    9.999   .     S
Ce245     Ce317    10.001   .     S
Ce245     Ce234    10.001   1_556     S
Ce245     Ce310    10.001   1_556     S
Ce246     Ce256    10.001   .     S
Ce246     Ce252    10.001   .     S
Ce246     Ce264    10.001   .     S
V247     V248    9.999   .     S
V247     Er250    10.001   .     S
V248     Er249    10.001   .     S
Er249     Ce251    9.999   .     S
Er249     Er250    9.999   .     S
Er250     Ce252    9.999   .     S
Ce251     Ce267    10.001   1_565     S
Ce251     Ce209    10.001   1_565     S
Ce251     Ce239    10.001   1_556     S
Ce251     Ce309    10.001   1_556     S
Ce252     Ce256    10.001   .     S
Ce252     Ce364    10.001   .     S
Ce252     Ce264    10.001   .     S
Er253     Ce255    9.999   .     S
Er253     Er254    9.999   .     S
Er253     V257    10.001   .     S
Er254     Ce256    9.999   .     S
Er254     V258    10.001   .     S
Ce255     Ce286    10.001   .     S
Ce255     Ce294    10.001   .     S
Ce255     Ce358    10.001   .     S
Ce256     Ce364    10.001   .     S
V257     V258    9.999   .     S
V259     V260    9.999   .     S
V259     Er261    10.001   .     S
V260     Er262    10.001   .     S
Er261     Ce263    9.999   .     S
Er261     Er262    9.999   .     S
Er262     Ce264    9.999   .     S
Ce263     Ce318    10.001   .     S
Ce263     Ce144    10.001   1_565     S
Ce263     Ce268    10.001   1_565     S
Ce264     Ce364    10.001   .     S
Er265     Ce268    9.999   .     S
Er265     Er266    9.999   .     S
Er265     V269    10.001   .     S
Er266     Ce267    9.999   .     S
Er266     V270    10.001   .     S
Ce267     Ce251    10.001   1_545     S
Ce267     Ce309    10.001   1_546     S
Ce267     Ce161    10.001   1_556     S
Ce268     Ce263    10.001   1_545     S
Ce268     Ce324    10.001   .     S
Ce268     Ce318    10.001   1_545     S
V269     V270    9.999   .     S
Er271     Ce274    9.999   .     S
Er271     Er272    9.999   .     S
Er271     V275    10.001   .     S
Er272     Ce273    9.999   .     S
Er272     V276    10.001   .     S
Ce273     Ce293    10.001   1_554     S
Ce273     Ce227    10.001   1_655     S
Ce273     Ce297    10.001   1_654     S
Ce274     Ce285    10.001   1_554     S
Ce274     Ce328    10.001   .     S
Ce274     Ce303    10.001   1_554     S
V275     V276    9.999   .     S
Er277     Ce280    9.999   .     S
Er277     Er278    9.999   .     S
Er277     V281    10.001   .     S
Er278     Ce279    9.999   .     S
Er278     V282    10.001   .     S
Ce279     Ce304    10.001   .     S
Ce279     Ce298    10.001   1_655     S
Ce279     Ce166    10.001   1_655     S
Ce280     Ce286    10.001   .     S
Ce280     Ce358    10.001   .     S
Ce280     Ce294    10.001   .     S
V281     V282    9.999   .     S
Er283     Ce286    9.999   .     S
Er283     Er284    9.999   .     S
Er283     V287    10.001   .     S
Er284     Ce285    9.999   .     S
Er284     V288    10.001   .     S
Ce285     Ce303    10.001   .     S
Ce285     Ce138    10.001   1_556     S
Ce285     Ce274    10.001   1_556     S
Ce286     Ce294    10.001   .     S
V287     V288    9.999   .     S
V289     V290    9.999   .     S
V289     Er291    10.001   .     S
V290     Er292    10.001   .     S
Er291     Ce294    9.999   .     S
Er291     Er292    9.999   .     S
Er292     Ce293    9.999   .     S
Ce293     Ce297    10.001   1_655     S
Ce293     Ce197    10.001   1_655     S
Ce293     Ce215    10.001   1_556     S
Ce293     Ce273    10.001   1_556     S
Ce294     Ce358    10.001   .     S
Er295     Ce298    9.999   .     S
Er295     Er296    9.999   .     S
Er295     V299    10.001   .     S
Er296     Ce297    9.999   .     S
Er296     V300    10.001   .     S
Ce297     Ce293    10.001   1_455     S
Ce297     Ce273    10.001   1_456     S
Ce297     Ce227    10.001   1_556     S
Ce298     Ce323    10.001   .     S
Ce298     Ce304    10.001   1_455     S
Ce298     Ce279    10.001   1_455     S
V299     V300    9.999   .     S
Er301     Ce304    9.999   .     S
Er301     Er302    9.999   .     S
Er301     V305    10.001   .     S
Er302     Ce303    9.999   .     S
Er302     V306    10.001   .     S
Ce303     Ce328    10.001   1_556     S
Ce303     Ce274    10.001   1_556     S
Ce304     Ce323    10.001   1_655     S
Ce304     Ce298    10.001   1_655     S
V305     V306    9.999   .     S
Er307     Ce310    9.999   .     S
Er307     Er308    9.999   .     S
Er307     V311    10.001   .     S
Er308     Ce309    9.999   .     S
Er308     V312    10.001   .     S
Ce309     Ce251    10.001   1_554     S
Ce309     Ce161    10.001   1_565     S
Ce309     Ce267    10.001   1_564     S
Ce310     Ce336    10.001   .     S
Ce310     Ce317    10.001   1_554     S
Ce310     Ce245    10.001   1_554     S
V311     V312    9.999   .     S
V313     V314    9.999   .     S
V313     Er315    10.001   .     S
V314     Er316    10.001   .     S
Er315     Ce318    9.999   .     S
Er315     Er316    9.999   .     S
Er316     Ce317    9.999   .     S
Ce317     Ce336    10.001   1_556     S
Ce317     Ce310    10.001   1_556     S
Ce318     Ce324    10.001   1_565     S
Ce318     Ce268    10.001   1_565     S
V319     V320    9.999   .     S
V319     Er321    10.001   .     S
V320     Er322    10.001   .     S
Er321     Ce324    9.999   .     S
Er321     Er322    9.999   .     S
Er322     Ce323    9.999   .     S
Ce323     Ce304    10.001   1_455     S
Ce323     Ce192    10.001   1_455     S
Ce324     Ce318    10.001   1_545     S
Ce324     Ce204    10.001   1_545     S
Er325     Ce328    9.999   .     S
Er325     Er326    9.999   .     S
Er325     V330    10.001   .     S
Er326     Ce327    9.999   .     S
Er326     V329    10.001   .     S
Ce327     Ce352    10.001   1_545     S
Ce327     Ce240    10.001   1_545     S
Ce327     Ce346    10.001   .     S
Ce328     Ce303    10.001   1_554     S
Ce328     Ce210    10.001   1_554     S
V329     V330    9.999   .     S
V331     V332    9.999   .     S
V331     Er334    10.001   .     S
V332     Er333    10.001   .     S
Er333     Ce336    9.999   .     S
Er333     Er334    9.999   .     S
Er334     Ce335    9.999   .     S
Ce335     Ce340    10.001   .     S
Ce335     Ce351    10.001   1_455     S
Ce335     Ce216    10.001   1_455     S
Ce336     Ce317    10.001   1_554     S
Ce336     Ce198    10.001   1_554     S
Er337     Ce340    9.999   .     S
Er337     Er338    9.999   .     S
Er337     V341    10.001   .     S
Er338     Ce339    9.999   .     S
Er338     V342    10.001   .     S
Ce339     Ce383    10.001   1_455     S
Ce339     Ce171    10.001   1_565     S
Ce339     Ce345    10.001   1_465     S
Ce340     Ce375    10.001   1_455     S
Ce340     Ce351    10.001   1_455     S
V341     V342    9.999   .     S
Er343     Ce346    9.999   .     S
Er343     Er344    9.999   .     S
Er343     V347    10.001   .     S
Er344     Ce345    9.999   .     S
Er344     V348    10.001   .     S
Ce345     Ce383    10.001   1_545     S
Ce345     Ce339    10.001   1_645     S
Ce345     Ce171    10.001   1_655     S
Ce346     Ce369    10.001   1_545     S
Ce346     Ce352    10.001   1_545     S
V347     V348    9.999   .     S
Er349     Ce352    9.999   .     S
Er349     Er350    9.999   .     S
Er349     V353    10.001   .     S
Er350     Ce351    9.999   .     S
Er350     V354    10.001   .     S
Ce351     Ce335    10.001   1_655     S
Ce351     Ce340    10.001   1_655     S
Ce351     Ce375    10.001   .     S
Ce352     Ce369    10.001   .     S
Ce352     Ce327    10.001   1_565     S
Ce352     Ce346    10.001   1_565     S
V353     V354    9.999   .     S
Er355     Ce358    9.999   .     S
Er355     Er356    9.999   .     S
Er355     V359    10.001   .     S
Er356     Ce357    9.999   .     S
Er356     V360    10.001   .     S
Ce357     Ce376    10.001   .     S
Ce357     Ce384    10.001   .     S
Ce357     Ce363    10.001   .     S
V359     V360    9.999   .     S
Er361     Ce364    9.999   .     S
Er361     Er362    9.999   .     S
Er361     V366    10.001   .     S
Er362     Ce363    9.999   .     S
Er362     V365    10.001   .     S
Ce363     Ce370    10.001   .     S
Ce363     Ce384    10.001   .     S
V365     V366    9.999   .     S
Er367     Ce370    9.999   .     S
Er367     Er368    9.999   .     S
Er367     V371    10.001   .     S
Er368     Ce369    9.999   .     S
Er368     V372    10.001   .     S
Ce369     Ce156    10.001   1_565     S
Ce369     Ce346    10.001   1_565     S
Ce370     Ce376    10.001   .     S
Ce370     Ce384    10.001   .     S
V371     V372    9.999   .     S
Er373     Ce376    9.999   .     S
Er373     Er374    9.999   .     S
Er373     V377    10.001   .     S
Er374     Ce375    9.999   .     S
Er374     V378    10.001   .     S
Ce375     Ce220    10.001   1_655     S
Ce375     Ce340    10.001   1_655     S
Ce376     Ce384    10.001   .     S
V377     V378    9.999   .     S
V379     V380    9.999   .     S
V379     Er381    10.001   .     S
V380     Er382    10.001   .     S
Er381     Ce384    9.999   .     S
Er381     Er382    9.999   .     S
Er382     Ce383    9.999   .     S
Ce383     Ce339    10.001   1_655     S
Ce383     Ce203    10.001   1_655     S
Ce383     Ce345    10.001   1_565     S
Ce383     Ce191    10.001   1_565     S
