data_dnu
_audit_creation_date              2020-02-04
_audit_creation_method            'Pymatgen'
_symmetry_space_group_name_H-M    'P1'
_symmetry_Int_Tables_number       1
loop_
_symmetry_equiv_pos_as_xyz
  x,y,z
_cell_length_a                    46.188
_cell_length_b                    46.188
_cell_length_c                    46.188
_cell_angle_alpha                 90.0
_cell_angle_beta                 90.0
_cell_angle_gamma                 90.0
loop_
_atom_site_label
_atom_site_type_symbol
_atom_site_fract_x
_atom_site_fract_y
_atom_site_fract_z
Ti1     Ti     0.25   0.25   0.5
Ti2     Ti     0.25   0.5   0.25
Ti3     Ti     0.5   0.25   0.25
Ti4     Ti     0.25   0.25   0.0
Ti5     Ti     0.0   0.25   0.25
Ti6     Ti     0.25   0.0   0.25
Ti7     Ti     0.75   0.25   0.5
Ti8     Ti     0.25   0.75   0.5
Ti9     Ti     0.5   0.75   0.25
Ti10     Ti     0.75   0.5   0.25
Ti11     Ti     0.5   0.25   0.75
Ti12     Ti     0.25   0.5   0.75
Ti13     Ti     0.25   0.75   0.0
Ti14     Ti     0.75   0.25   0.0
Ti15     Ti     0.0   0.25   0.75
Ti16     Ti     0.25   0.0   0.75
Ti17     Ti     0.0   0.75   0.25
Ti18     Ti     0.75   0.0   0.25
Er19     Er     0.25   0.5   0.0
Er20     Er     0.75   0.5   0.0
V21     V     0.875   0.375   0.875
V22     V     0.875   0.625   0.125
Er23     Er     0.0   0.5   0.75
V24     V     0.125   0.375   0.875
V25     V     0.875   0.625   0.875
V26     V     0.125   0.625   0.875
V27     V     0.875   0.375   0.125
Er28     Er     0.0   0.5   0.25
Er29     Er     0.5   0.25   0.0
Er30     Er     0.5   0.0   0.75
V31     V     0.375   0.875   0.875
V32     V     0.625   0.125   0.875
V33     V     0.625   0.875   0.875
Er34     Er     0.5   0.75   0.0
V35     V     0.375   0.875   0.125
V36     V     0.375   0.125   0.875
V37     V     0.625   0.875   0.125
Er38     Er     0.5   0.0   0.25
Er39     Er     0.25   0.0   0.5
Er40     Er     0.0   0.25   0.5
V41     V     0.875   0.125   0.375
Er42     Er     0.75   0.0   0.5
V43     V     0.875   0.875   0.625
Er44     Er     0.0   0.75   0.5
V45     V     0.875   0.875   0.375
V46     V     0.125   0.875   0.625
V47     V     0.875   0.125   0.625
V48     V     0.125   0.875   0.375
V49     V     0.125   0.125   0.375
V50     V     0.125   0.125   0.625
V51     V     0.375   0.875   0.625
V52     V     0.125   0.375   0.625
V53     V     0.875   0.375   0.375
V54     V     0.375   0.125   0.375
V55     V     0.375   0.875   0.375
V56     V     0.125   0.375   0.375
V57     V     0.375   0.125   0.625
V58     V     0.875   0.375   0.625
V59     V     0.375   0.125   0.125
V60     V     0.625   0.125   0.125
V61     V     0.375   0.375   0.875
V62     V     0.625   0.375   0.875
V63     V     0.625   0.875   0.375
V64     V     0.625   0.125   0.375
V65     V     0.625   0.625   0.875
V66     V     0.125   0.625   0.125
V67     V     0.125   0.375   0.125
V68     V     0.375   0.625   0.875
V69     V     0.125   0.625   0.375
V70     V     0.875   0.625   0.375
V71     V     0.875   0.625   0.625
V72     V     0.625   0.125   0.625
V73     V     0.625   0.875   0.625
V74     V     0.125   0.625   0.625
Ti75     Ti     0.0   0.75   0.75
Ti76     Ti     0.75   0.0   0.75
Ti77     Ti     0.75   0.75   0.0
Ti78     Ti     0.5   0.75   0.75
Ti79     Ti     0.75   0.5   0.75
Ti80     Ti     0.75   0.75   0.5
V81     V     0.625   0.375   0.125
V82     V     0.625   0.625   0.125
V83     V     0.375   0.625   0.125
V84     V     0.375   0.375   0.125
loop_
_geom_bond_atom_site_label_1
_geom_bond_atom_site_label_2
_geom_bond_distance
_geom_bond_site_symmetry_2
_ccdc_geom_bond_type
Ti1     V56    10.0   .     S
Ti1     V57    10.0   .     S
Ti1     V54    10.0   .     S
Ti1     V52    10.0   .     S
Ti2     V84    10.0   .     S
Ti2     V69    10.0   .     S
Ti2     V83    10.0   .     S
Ti2     V56    10.0   .     S
Ti3     V81    10.0   .     S
Ti3     V54    10.0   .     S
Ti3     V84    10.0   .     S
Ti3     V64    10.0   .     S
Ti4     V36    10.0   1_554     S
Ti4     V67    10.0   .     S
Ti4     V59    10.0   .     S
Ti4     V24    10.0   1_554     S
Ti5     V27    10.0   1_455     S
Ti5     V49    10.0   .     S
Ti5     V41    10.0   1_455     S
Ti5     V67    10.0   .     S
Ti6     V48    10.0   1_545     S
Ti6     V59    10.0   .     S
Ti6     V49    10.0   .     S
Ti6     V35    10.0   1_545     S
Ti7     V58    10.0   .     S
Ti7     V53    10.0   .     S
Ti7     V64    10.0   .     S
Ti7     V72    10.0   .     S
Ti8     V55    10.0   .     S
Ti8     V51    10.0   .     S
Ti8     V74    10.0   .     S
Ti8     V69    10.0   .     S
Ti9     V63    10.0   .     S
Ti9     V55    10.0   .     S
Ti9     V83    10.0   .     S
Ti9     V82    10.0   .     S
Ti10     V53    10.0   .     S
Ti10     V70    10.0   .     S
Ti10     V82    10.0   .     S
Ti10     V81    10.0   .     S
Ti11     V61    10.0   .     S
Ti11     V62    10.0   .     S
Ti11     V72    10.0   .     S
Ti11     V57    10.0   .     S
Ti12     V68    10.0   .     S
Ti12     V61    10.0   .     S
Ti12     V52    10.0   .     S
Ti12     V74    10.0   .     S
Ti13     V31    10.0   1_554     S
Ti13     V35    10.0   .     S
Ti13     V26    10.0   1_554     S
Ti13     V66    10.0   .     S
Ti14     V21    10.0   1_554     S
Ti14     V27    10.0   .     S
Ti14     V32    10.0   1_554     S
Ti14     V60    10.0   .     S
Ti15     V24    10.0   .     S
Ti15     V21    10.0   1_455     S
Ti15     V47    10.0   1_455     S
Ti15     V50    10.0   .     S
Ti16     V31    10.0   1_545     S
Ti16     V36    10.0   .     S
Ti16     V50    10.0   .     S
Ti16     V46    10.0   1_545     S
Ti17     V45    10.0   1_455     S
Ti17     V48    10.0   .     S
Ti17     V66    10.0   .     S
Ti17     V22    10.0   1_455     S
Ti18     V41    10.0   .     S
Ti18     V45    10.0   1_545     S
Ti18     V37    10.0   1_545     S
Ti18     V60    10.0   .     S
Er19     V26    10.0   1_554     S
Er19     V67    10.0   .     S
Er19     V66    10.0   .     S
Er19     V24    10.0   1_554     S
Er19     V68    10.0   1_554     S
Er19     V84    10.0   .     S
Er19     V83    10.0   .     S
Er19     V61    10.0   1_554     S
Er20     V21    10.0   1_554     S
Er20     V22    10.0   .     S
Er20     V25    10.0   1_554     S
Er20     V27    10.0   .     S
Er20     V62    10.0   1_554     S
Er20     V65    10.0   1_554     S
Er20     V82    10.0   .     S
Er20     V81    10.0   .     S
V21     Ti14    10.0   1_556     S
V21     Ti15    10.0   1_655     S
V21     Er20    10.0   1_556     S
V21     Er23    10.0   1_655     S
V22     Er28    10.0   1_655     S
V22     Ti17    10.0   1_655     S
V22     Ti77    10.0   .     S
Er23     V21    10.0   1_455     S
Er23     V24    10.0   .     S
Er23     V25    10.0   1_455     S
Er23     V26    10.0   .     S
Er23     V71    10.0   1_455     S
Er23     V52    10.0   .     S
Er23     V74    10.0   .     S
Er23     V58    10.0   1_455     S
V24     Ti4    10.0   1_556     S
V24     Er19    10.0   1_556     S
V25     Er23    10.0   1_655     S
V25     Er20    10.0   1_556     S
V25     Ti75    10.0   1_655     S
V25     Ti77    10.0   1_556     S
V26     Er19    10.0   1_556     S
V26     Ti75    10.0   .     S
V26     Ti13    10.0   1_556     S
V27     Ti5    10.0   1_655     S
V27     Er28    10.0   1_655     S
Er28     V27    10.0   1_455     S
Er28     V66    10.0   .     S
Er28     V22    10.0   1_455     S
Er28     V67    10.0   .     S
Er28     V53    10.0   1_455     S
Er28     V69    10.0   .     S
Er28     V56    10.0   .     S
Er28     V70    10.0   1_455     S
Er29     V36    10.0   1_554     S
Er29     V60    10.0   .     S
Er29     V59    10.0   .     S
Er29     V32    10.0   1_554     S
Er29     V61    10.0   1_554     S
Er29     V81    10.0   .     S
Er29     V84    10.0   .     S
Er29     V62    10.0   1_554     S
Er30     V31    10.0   1_545     S
Er30     V32    10.0   .     S
Er30     V33    10.0   1_545     S
Er30     V36    10.0   .     S
Er30     V51    10.0   1_545     S
Er30     V72    10.0   .     S
Er30     V57    10.0   .     S
Er30     V73    10.0   1_545     S
V31     Ti13    10.0   1_556     S
V31     Ti16    10.0   1_565     S
V31     Er30    10.0   1_565     S
V31     Er34    10.0   1_556     S
V32     Er29    10.0   1_556     S
V32     Ti76    10.0   .     S
V32     Ti14    10.0   1_556     S
V33     Er30    10.0   1_565     S
V33     Er34    10.0   1_556     S
V33     Ti77    10.0   1_556     S
V33     Ti76    10.0   1_565     S
Er34     V33    10.0   1_554     S
Er34     V35    10.0   .     S
Er34     V37    10.0   .     S
Er34     V31    10.0   1_554     S
Er34     V65    10.0   1_554     S
Er34     V68    10.0   1_554     S
Er34     V83    10.0   .     S
Er34     V82    10.0   .     S
V35     Ti6    10.0   1_565     S
V35     Er38    10.0   1_565     S
V36     Ti4    10.0   1_556     S
V36     Er29    10.0   1_556     S
V37     Er38    10.0   1_565     S
V37     Ti18    10.0   1_565     S
V37     Ti77    10.0   .     S
Er38     V37    10.0   1_545     S
Er38     V59    10.0   .     S
Er38     V60    10.0   .     S
Er38     V35    10.0   1_545     S
Er38     V63    10.0   1_545     S
Er38     V54    10.0   .     S
Er38     V64    10.0   .     S
Er38     V55    10.0   1_545     S
Er39     V48    10.0   1_545     S
Er39     V50    10.0   .     S
Er39     V46    10.0   1_545     S
Er39     V49    10.0   .     S
Er39     V55    10.0   1_545     S
Er39     V57    10.0   .     S
Er39     V54    10.0   .     S
Er39     V51    10.0   1_545     S
Er40     V49    10.0   .     S
Er40     V47    10.0   1_455     S
Er40     V50    10.0   .     S
Er40     V41    10.0   1_455     S
Er40     V56    10.0   .     S
Er40     V58    10.0   1_455     S
Er40     V52    10.0   .     S
Er40     V53    10.0   1_455     S
V41     Ti5    10.0   1_655     S
V41     Er40    10.0   1_655     S
V41     Er42    10.0   .     S
Er42     V43    10.0   1_545     S
Er42     V47    10.0   .     S
Er42     V45    10.0   1_545     S
Er42     V73    10.0   1_545     S
Er42     V64    10.0   .     S
Er42     V72    10.0   .     S
Er42     V63    10.0   1_545     S
V43     Er42    10.0   1_565     S
V43     Er44    10.0   1_655     S
V43     Ti76    10.0   1_565     S
V43     Ti75    10.0   1_655     S
Er44     V43    10.0   1_455     S
Er44     V45    10.0   1_455     S
Er44     V46    10.0   .     S
Er44     V48    10.0   .     S
Er44     V70    10.0   1_455     S
Er44     V74    10.0   .     S
Er44     V71    10.0   1_455     S
Er44     V69    10.0   .     S
V45     Ti17    10.0   1_655     S
V45     Ti18    10.0   1_565     S
V45     Er44    10.0   1_655     S
V45     Er42    10.0   1_565     S
V46     Er39    10.0   1_565     S
V46     Ti75    10.0   .     S
V46     Ti16    10.0   1_565     S
V47     Er40    10.0   1_655     S
V47     Ti15    10.0   1_655     S
V47     Ti76    10.0   .     S
V48     Ti6    10.0   1_565     S
V48     Er39    10.0   1_565     S
V51     Er39    10.0   1_565     S
V51     Er30    10.0   1_565     S
V51     Ti78    10.0   .     S
V53     Er28    10.0   1_655     S
V53     Er40    10.0   1_655     S
V55     Er38    10.0   1_565     S
V55     Er39    10.0   1_565     S
V58     Er40    10.0   1_655     S
V58     Er23    10.0   1_655     S
V58     Ti79    10.0   .     S
V61     Er19    10.0   1_556     S
V61     Er29    10.0   1_556     S
V62     Er29    10.0   1_556     S
V62     Er20    10.0   1_556     S
V62     Ti79    10.0   .     S
V63     Er38    10.0   1_565     S
V63     Er42    10.0   1_565     S
V63     Ti80    10.0   .     S
V65     Er34    10.0   1_556     S
V65     Er20    10.0   1_556     S
V65     Ti78    10.0   .     S
V65     Ti79    10.0   .     S
V68     Er19    10.0   1_556     S
V68     Er34    10.0   1_556     S
V68     Ti78    10.0   .     S
V70     Er28    10.0   1_655     S
V70     Er44    10.0   1_655     S
V70     Ti80    10.0   .     S
V71     Er23    10.0   1_655     S
V71     Er44    10.0   1_655     S
V71     Ti79    10.0   .     S
V71     Ti80    10.0   .     S
V73     Er42    10.0   1_565     S
V73     Er30    10.0   1_565     S
V73     Ti80    10.0   .     S
V73     Ti78    10.0   .     S
Ti75     V25    10.0   1_455     S
Ti75     V43    10.0   1_455     S
Ti76     V43    10.0   1_545     S
Ti76     V33    10.0   1_545     S
Ti77     V33    10.0   1_554     S
Ti77     V25    10.0   1_554     S
