data_dnua
_audit_creation_date              2020-02-04
_audit_creation_method            'Pymatgen'
_symmetry_space_group_name_H-M    'P1'
_symmetry_Int_Tables_number       1
loop_
_symmetry_equiv_pos_as_xyz
  x,y,z
_cell_length_a                    114.4795
_cell_length_b                    114.4795
_cell_length_c                    114.4795
_cell_angle_alpha                 90.0
_cell_angle_beta                 90.0
_cell_angle_gamma                 90.0
loop_
_atom_site_label
_atom_site_type_symbol
_atom_site_fract_x
_atom_site_fract_y
_atom_site_fract_z
Ce1     Ce     0.9563   0.2677   0.2059
Ce2     Ce     0.0437   0.2677   0.2059
Ce3     Ce     0.9563   0.2059   0.2677
Ce4     Ce     0.0437   0.2059   0.2677
Ce5     Ce     0.2059   0.2677   0.9563
Ce6     Ce     0.2059   0.2677   0.0437
Ce7     Ce     0.2677   0.2059   0.9563
Ce8     Ce     0.2677   0.2059   0.0437
Ce9     Ce     0.2677   0.9563   0.2059
Ce10     Ce     0.2677   0.0437   0.2059
Ce11     Ce     0.2059   0.9563   0.2677
Ce12     Ce     0.2059   0.0437   0.2677
Ce13     Ce     0.2323   0.2941   0.4563
Ce14     Ce     0.2323   0.2941   0.5437
Ce15     Ce     0.2941   0.2323   0.5437
Ce16     Ce     0.2941   0.2323   0.4563
Ce17     Ce     0.2941   0.4563   0.2323
Ce18     Ce     0.2941   0.5437   0.2323
Ce19     Ce     0.2323   0.5437   0.2941
Ce20     Ce     0.2323   0.4563   0.2941
Ce21     Ce     0.5437   0.2323   0.2941
Ce22     Ce     0.4563   0.2323   0.2941
Ce23     Ce     0.5437   0.2941   0.2323
Ce24     Ce     0.4563   0.2941   0.2323
Ce25     Ce     0.2059   0.7323   0.9563
Ce26     Ce     0.2059   0.7323   0.0437
Ce27     Ce     0.2677   0.7941   0.9563
Ce28     Ce     0.2677   0.7941   0.0437
Ce29     Ce     0.9563   0.2059   0.7323
Ce30     Ce     0.0437   0.2059   0.7323
Ce31     Ce     0.9563   0.2677   0.7941
Ce32     Ce     0.0437   0.2677   0.7941
Ce33     Ce     0.7323   0.9563   0.2059
Ce34     Ce     0.7323   0.0437   0.2059
Ce35     Ce     0.7941   0.9563   0.2677
Ce36     Ce     0.7941   0.0437   0.2677
Ce37     Ce     0.7323   0.2059   0.9563
Ce38     Ce     0.7323   0.2059   0.0437
Ce39     Ce     0.7941   0.2677   0.9563
Ce40     Ce     0.7941   0.2677   0.0437
Ce41     Ce     0.2059   0.9563   0.7323
Ce42     Ce     0.2059   0.0437   0.7323
Ce43     Ce     0.2677   0.9563   0.7941
Ce44     Ce     0.2677   0.0437   0.7941
Ce45     Ce     0.9563   0.7323   0.2059
Ce46     Ce     0.0437   0.7323   0.2059
Ce47     Ce     0.9563   0.7941   0.2677
Ce48     Ce     0.0437   0.7941   0.2677
Ce49     Ce     0.7059   0.2323   0.5437
Ce50     Ce     0.7059   0.2323   0.4563
Ce51     Ce     0.7677   0.2941   0.4563
Ce52     Ce     0.7677   0.2941   0.5437
Ce53     Ce     0.2323   0.5437   0.7059
Ce54     Ce     0.2323   0.4563   0.7059
Ce55     Ce     0.2941   0.5437   0.7677
Ce56     Ce     0.2941   0.4563   0.7677
Ce57     Ce     0.5437   0.7059   0.2323
Ce58     Ce     0.4563   0.7059   0.2323
Ce59     Ce     0.4563   0.7677   0.2941
Ce60     Ce     0.5437   0.7677   0.2941
Ce61     Ce     0.2323   0.7059   0.5437
Ce62     Ce     0.2323   0.7059   0.4563
Ce63     Ce     0.2941   0.7677   0.4563
Ce64     Ce     0.2941   0.7677   0.5437
Ce65     Ce     0.5437   0.2323   0.7059
Ce66     Ce     0.4563   0.2323   0.7059
Ce67     Ce     0.4563   0.2941   0.7677
Ce68     Ce     0.5437   0.2941   0.7677
Ce69     Ce     0.7059   0.5437   0.2323
Ce70     Ce     0.7059   0.4563   0.2323
Ce71     Ce     0.7677   0.5437   0.2941
Ce72     Ce     0.7677   0.4563   0.2941
Ce73     Ce     0.7677   0.7059   0.5437
Ce74     Ce     0.7677   0.7059   0.4563
Ce75     Ce     0.7059   0.7677   0.5437
Ce76     Ce     0.7059   0.7677   0.4563
Ce77     Ce     0.7059   0.4563   0.7677
Ce78     Ce     0.7059   0.5437   0.7677
Ce79     Ce     0.7677   0.5437   0.7059
Ce80     Ce     0.7677   0.4563   0.7059
Ce81     Ce     0.5437   0.7677   0.7059
Ce82     Ce     0.4563   0.7677   0.7059
Ce83     Ce     0.5437   0.7059   0.7677
Ce84     Ce     0.4563   0.7059   0.7677
Ce85     Ce     0.7941   0.7323   0.9563
Ce86     Ce     0.7941   0.7323   0.0437
Ce87     Ce     0.7323   0.7941   0.9563
Ce88     Ce     0.7323   0.7941   0.0437
Ce89     Ce     0.9563   0.7941   0.7323
Ce90     Ce     0.0437   0.7941   0.7323
Ce91     Ce     0.9563   0.7323   0.7941
Ce92     Ce     0.0437   0.7323   0.7941
Ce93     Ce     0.7323   0.9563   0.7941
Ce94     Ce     0.7323   0.0437   0.7941
Ce95     Ce     0.7941   0.9563   0.7323
Ce96     Ce     0.7941   0.0437   0.7323
Er97     Er     0.8186   0.3443   0.5939
V98     V     0.9059   0.344   0.5942
Er99     Er     0.8186   0.4061   0.6557
V100     V     0.9059   0.4058   0.656
Er101     Er     0.4061   0.8186   0.3443
V102     V     0.4058   0.9059   0.344
Er103     Er     0.3443   0.8186   0.4061
V104     V     0.344   0.9059   0.4058
Er105     Er     0.8186   0.5939   0.3443
V106     V     0.9059   0.5942   0.344
Er107     Er     0.8186   0.6557   0.4061
V108     V     0.9059   0.656   0.4058
Er109     Er     0.5939   0.8186   0.6557
V110     V     0.5942   0.9059   0.656
Er111     Er     0.6557   0.8186   0.5939
V112     V     0.656   0.9059   0.5942
Er113     Er     0.5939   0.8186   0.3443
V114     V     0.5942   0.9059   0.344
Er115     Er     0.6557   0.8186   0.4061
V116     V     0.656   0.9059   0.4058
Er117     Er     0.8186   0.3443   0.4061
V118     V     0.9059   0.344   0.4058
Er119     Er     0.8186   0.4061   0.3443
V120     V     0.9059   0.4058   0.344
Er121     Er     0.3443   0.8186   0.5939
V122     V     0.344   0.9059   0.5942
Er123     Er     0.4061   0.8186   0.6557
V124     V     0.4058   0.9059   0.656
Er125     Er     0.8186   0.6557   0.5939
V126     V     0.9059   0.656   0.5942
Er127     Er     0.8186   0.5939   0.6557
V128     V     0.9059   0.5942   0.656
Er129     Er     0.5939   0.3443   0.8186
V130     V     0.5942   0.344   0.9059
Er131     Er     0.6557   0.4061   0.8186
V132     V     0.656   0.4058   0.9059
Er133     Er     0.3443   0.4061   0.8186
V134     V     0.344   0.4058   0.9059
Er135     Er     0.4061   0.3443   0.8186
V136     V     0.4058   0.344   0.9059
Er137     Er     0.3443   0.5939   0.8186
V138     V     0.344   0.5942   0.9059
Er139     Er     0.4061   0.6557   0.8186
V140     V     0.4058   0.656   0.9059
Er141     Er     0.6557   0.5939   0.8186
V142     V     0.656   0.5942   0.9059
Er143     Er     0.5939   0.6557   0.8186
V144     V     0.5942   0.656   0.9059
Er145     Er     0.6814   0.9061   0.8443
V146     V     0.5941   0.9058   0.844
Er147     Er     0.6814   0.8443   0.9061
V148     V     0.5941   0.844   0.9058
Er149     Er     0.8443   0.6814   0.9061
V150     V     0.844   0.5941   0.9058
Er151     Er     0.9061   0.6814   0.8443
V152     V     0.9058   0.5941   0.844
Er153     Er     0.9061   0.8443   0.6814
V154     V     0.9058   0.844   0.5941
Er155     Er     0.8443   0.9061   0.6814
V156     V     0.844   0.9058   0.5941
Er157     Er     0.1814   0.5939   0.6557
V158     V     0.0941   0.5942   0.656
Er159     Er     0.1814   0.6557   0.5939
V160     V     0.0941   0.656   0.5942
Er161     Er     0.3443   0.1814   0.5939
V162     V     0.344   0.0941   0.5942
Er163     Er     0.4061   0.1814   0.6557
V164     V     0.4058   0.0941   0.656
Er165     Er     0.5939   0.1814   0.3443
V166     V     0.5942   0.0941   0.344
Er167     Er     0.6557   0.1814   0.4061
V168     V     0.656   0.0941   0.4058
Er169     Er     0.3443   0.1814   0.4061
V170     V     0.344   0.0941   0.4058
Er171     Er     0.4061   0.1814   0.3443
V172     V     0.4058   0.0941   0.344
Er173     Er     0.1814   0.5939   0.3443
V174     V     0.0941   0.5942   0.344
Er175     Er     0.1814   0.6557   0.4061
V176     V     0.0941   0.656   0.4058
Er177     Er     0.9061   0.1557   0.6814
V178     V     0.9058   0.156   0.5941
Er179     Er     0.8443   0.0939   0.6814
V180     V     0.844   0.0942   0.5941
Er181     Er     0.1557   0.9061   0.6814
V182     V     0.156   0.9058   0.5941
Er183     Er     0.0939   0.8443   0.6814
V184     V     0.0942   0.844   0.5941
Ti185     Ti     0.9564   0.7063   0.5437
Ti186     Ti     0.0436   0.7063   0.5437
Ti187     Ti     0.0437   0.7937   0.5436
Ti188     Ti     0.0437   0.7937   0.4564
Ti189     Ti     0.9563   0.7937   0.5436
Ti190     Ti     0.9563   0.7937   0.4564
Ti191     Ti     0.9564   0.7063   0.4563
Ti192     Ti     0.0436   0.7063   0.4563
Er193     Er     0.1557   0.9061   0.3186
V194     V     0.156   0.9058   0.4059
Er195     Er     0.0939   0.8443   0.3186
V196     V     0.0942   0.844   0.4059
Er197     Er     0.9061   0.8443   0.3186
V198     V     0.9058   0.844   0.4059
Er199     Er     0.8443   0.9061   0.3186
V200     V     0.844   0.9058   0.4059
Ti201     Ti     0.7063   0.9564   0.4563
Ti202     Ti     0.7063   0.0436   0.4563
Ti203     Ti     0.7937   0.0437   0.5436
Ti204     Ti     0.7937   0.0437   0.4564
Ti205     Ti     0.7937   0.9563   0.5436
Ti206     Ti     0.7937   0.9563   0.4564
Ti207     Ti     0.7063   0.9564   0.5437
Ti208     Ti     0.7063   0.0436   0.5437
Er209     Er     0.9061   0.1557   0.3186
V210     V     0.9058   0.156   0.4059
Er211     Er     0.8443   0.0939   0.3186
V212     V     0.844   0.0942   0.4059
Er213     Er     0.6557   0.1814   0.5939
V214     V     0.656   0.0941   0.5942
Er215     Er     0.5939   0.1814   0.6557
V216     V     0.5942   0.0941   0.656
Er217     Er     0.1814   0.3443   0.5939
V218     V     0.0941   0.344   0.5942
Er219     Er     0.1814   0.4061   0.6557
V220     V     0.0941   0.4058   0.656
Er221     Er     0.3443   0.5939   0.1814
V222     V     0.344   0.5942   0.0941
Er223     Er     0.4061   0.6557   0.1814
V224     V     0.4058   0.656   0.0941
Er225     Er     0.6814   0.9061   0.1557
V226     V     0.5941   0.9058   0.156
Er227     Er     0.6814   0.8443   0.0939
V228     V     0.5941   0.844   0.0942
Er229     Er     0.6814   0.1557   0.9061
V230     V     0.5941   0.156   0.9058
Er231     Er     0.6814   0.0939   0.8443
V232     V     0.5941   0.0942   0.844
Ti233     Ti     0.5437   0.9564   0.7063
Ti234     Ti     0.5437   0.0436   0.7063
Ti235     Ti     0.5436   0.0437   0.7937
Ti236     Ti     0.4564   0.0437   0.7937
Ti237     Ti     0.5436   0.9563   0.7937
Ti238     Ti     0.4564   0.9563   0.7937
Ti239     Ti     0.4563   0.9564   0.7063
Ti240     Ti     0.4563   0.0436   0.7063
Er241     Er     0.3186   0.1557   0.9061
V242     V     0.4059   0.156   0.9058
Er243     Er     0.3186   0.0939   0.8443
V244     V     0.4059   0.0942   0.844
Er245     Er     0.3186   0.9061   0.8443
V246     V     0.4059   0.9058   0.844
Er247     Er     0.3186   0.8443   0.9061
V248     V     0.4059   0.844   0.9058
Ti249     Ti     0.4563   0.7063   0.9564
Ti250     Ti     0.4563   0.7063   0.0436
Ti251     Ti     0.5436   0.7937   0.0437
Ti252     Ti     0.4564   0.7937   0.0437
Ti253     Ti     0.5436   0.7937   0.9563
Ti254     Ti     0.4564   0.7937   0.9563
Ti255     Ti     0.5437   0.7063   0.9564
Ti256     Ti     0.5437   0.7063   0.0436
Er257     Er     0.3186   0.9061   0.1557
V258     V     0.4059   0.9058   0.156
Er259     Er     0.3186   0.8443   0.0939
V260     V     0.4059   0.844   0.0942
Er261     Er     0.5939   0.6557   0.1814
V262     V     0.5942   0.656   0.0941
Er263     Er     0.6557   0.5939   0.1814
V264     V     0.656   0.5942   0.0941
Er265     Er     0.1557   0.6814   0.9061
V266     V     0.156   0.5941   0.9058
Er267     Er     0.0939   0.6814   0.8443
V268     V     0.0942   0.5941   0.844
Er269     Er     0.9061   0.6814   0.1557
V270     V     0.9058   0.5941   0.156
Er271     Er     0.8443   0.6814   0.0939
V272     V     0.844   0.5941   0.0942
Ti273     Ti     0.9564   0.4563   0.7063
Ti274     Ti     0.0436   0.4563   0.7063
Ti275     Ti     0.0437   0.5436   0.7937
Ti276     Ti     0.0437   0.4564   0.7937
Ti277     Ti     0.9563   0.5436   0.7937
Ti278     Ti     0.9563   0.4564   0.7937
Ti279     Ti     0.9564   0.5437   0.7063
Ti280     Ti     0.0436   0.5437   0.7063
Er281     Er     0.1557   0.3186   0.9061
V282     V     0.156   0.4059   0.9058
Er283     Er     0.0939   0.3186   0.8443
V284     V     0.0942   0.4059   0.844
Er285     Er     0.9061   0.3186   0.8443
V286     V     0.9058   0.4059   0.844
Er287     Er     0.8443   0.3186   0.9061
V288     V     0.844   0.4059   0.9058
Ti289     Ti     0.7063   0.5437   0.9564
Ti290     Ti     0.7063   0.5437   0.0436
Ti291     Ti     0.7937   0.5436   0.0437
Ti292     Ti     0.7937   0.4564   0.0437
Ti293     Ti     0.7937   0.5436   0.9563
Ti294     Ti     0.7937   0.4564   0.9563
Ti295     Ti     0.7063   0.4563   0.9564
Ti296     Ti     0.7063   0.4563   0.0436
Er297     Er     0.9061   0.3186   0.1557
V298     V     0.9058   0.4059   0.156
Er299     Er     0.8443   0.3186   0.0939
V300     V     0.844   0.4059   0.0942
Er301     Er     0.5939   0.3443   0.1814
V302     V     0.5942   0.344   0.0941
Er303     Er     0.6557   0.4061   0.1814
V304     V     0.656   0.4058   0.0941
Er305     Er     0.6814   0.0939   0.1557
V306     V     0.5941   0.0942   0.156
Er307     Er     0.6814   0.1557   0.0939
V308     V     0.5941   0.156   0.0942
Ti309     Ti     0.5436   0.9563   0.2063
Ti310     Ti     0.4564   0.9563   0.2063
Ti311     Ti     0.5437   0.9564   0.2937
Ti312     Ti     0.5437   0.0436   0.2937
Ti313     Ti     0.4563   0.9564   0.2937
Ti314     Ti     0.4563   0.0436   0.2937
Ti315     Ti     0.5436   0.0437   0.2063
Ti316     Ti     0.4564   0.0437   0.2063
Er317     Er     0.3186   0.0939   0.1557
V318     V     0.4059   0.0942   0.156
Er319     Er     0.3186   0.1557   0.0939
V320     V     0.4059   0.156   0.0942
Ti321     Ti     0.5437   0.2937   0.9564
Ti322     Ti     0.5437   0.2937   0.0436
Ti323     Ti     0.5436   0.2063   0.0437
Ti324     Ti     0.4564   0.2063   0.0437
Ti325     Ti     0.5436   0.2063   0.9563
Ti326     Ti     0.4564   0.2063   0.9563
Ti327     Ti     0.4563   0.2937   0.9564
Ti328     Ti     0.4563   0.2937   0.0436
Er329     Er     0.4061   0.3443   0.1814
V330     V     0.4058   0.344   0.0941
Er331     Er     0.3443   0.4061   0.1814
V332     V     0.344   0.4058   0.0941
Er333     Er     0.1557   0.6814   0.0939
V334     V     0.156   0.5941   0.0942
Er335     Er     0.0939   0.6814   0.1557
V336     V     0.0942   0.5941   0.156
Ti337     Ti     0.2063   0.5436   0.9563
Ti338     Ti     0.2063   0.4564   0.9563
Ti339     Ti     0.2937   0.5437   0.9564
Ti340     Ti     0.2937   0.5437   0.0436
Ti341     Ti     0.2937   0.4563   0.9564
Ti342     Ti     0.2937   0.4563   0.0436
Ti343     Ti     0.2063   0.5436   0.0437
Ti344     Ti     0.2063   0.4564   0.0437
Er345     Er     0.1557   0.3186   0.0939
V346     V     0.156   0.4059   0.0942
Er347     Er     0.0939   0.3186   0.1557
V348     V     0.0942   0.4059   0.156
Ti349     Ti     0.0437   0.5436   0.2063
Ti350     Ti     0.0437   0.4564   0.2063
Ti351     Ti     0.9564   0.5437   0.2937
Ti352     Ti     0.0436   0.5437   0.2937
Ti353     Ti     0.9563   0.5436   0.2063
Ti354     Ti     0.9563   0.4564   0.2063
Ti355     Ti     0.9564   0.4563   0.2937
Ti356     Ti     0.0436   0.4563   0.2937
Er357     Er     0.1814   0.4061   0.3443
V358     V     0.0941   0.4058   0.344
Er359     Er     0.1814   0.3443   0.4061
V360     V     0.0941   0.344   0.4058
Er361     Er     0.0939   0.1557   0.6814
V362     V     0.0942   0.156   0.5941
Er363     Er     0.1557   0.0939   0.6814
V364     V     0.156   0.0942   0.5941
Ti365     Ti     0.2937   0.9564   0.4563
Ti366     Ti     0.2937   0.0436   0.4563
Ti367     Ti     0.2063   0.9563   0.5436
Ti368     Ti     0.2063   0.9563   0.4564
Ti369     Ti     0.2937   0.9564   0.5437
Ti370     Ti     0.2937   0.0436   0.5437
Ti371     Ti     0.2063   0.0437   0.5436
Ti372     Ti     0.2063   0.0437   0.4564
Er373     Er     0.1557   0.0939   0.3186
V374     V     0.156   0.0942   0.4059
Er375     Er     0.0939   0.1557   0.3186
V376     V     0.0942   0.156   0.4059
Ti377     Ti     0.9563   0.2063   0.5436
Ti378     Ti     0.9563   0.2063   0.4564
Ti379     Ti     0.9564   0.2937   0.5437
Ti380     Ti     0.0436   0.2937   0.5437
Ti381     Ti     0.9564   0.2937   0.4563
Ti382     Ti     0.0436   0.2937   0.4563
Ti383     Ti     0.0437   0.2063   0.5436
Ti384     Ti     0.0437   0.2063   0.4564
loop_
_geom_bond_atom_site_label_1
_geom_bond_atom_site_label_2
_geom_bond_distance
_geom_bond_site_symmetry_2
_ccdc_geom_bond_type
Ce1     Ce2    9.999   1_655     S
Ce1     Ce3    10.002   .     S
Ce1     Er297    10.004   .     S
Ce2     Ce1    9.999   1_455     S
Ce2     Ce4    10.002   .     S
Ce2     Er347    10.004   .     S
Ce3     Ce4    9.999   1_655     S
Ce3     Er209    10.004   .     S
Ce4     Ce3    9.999   1_455     S
Ce4     Er375    10.004   .     S
Ce5     Ce6    9.999   1_556     S
Ce5     Ce7    10.002   .     S
Ce5     Er281    10.004   .     S
Ce6     Ce5    9.999   1_554     S
Ce6     Ce8    10.002   .     S
Ce6     Er345    10.004   .     S
Ce7     Ce8    9.999   1_556     S
Ce7     Er241    10.004   .     S
Ce8     Ce7    9.999   1_554     S
Ce8     Er319    10.004   .     S
Ce9     Ce10    9.999   1_565     S
Ce9     Ce11    10.002   .     S
Ce9     Er257    10.004   .     S
Ce10     Ce9    9.999   1_545     S
Ce10     Ce12    10.002   .     S
Ce10     Er317    10.004   .     S
Ce11     Ce12    9.999   1_565     S
Ce11     Er193    10.004   .     S
Ce12     Ce11    9.999   1_545     S
Ce12     Er373    10.004   .     S
Ce13     Ce14    9.999   .     S
Ce13     Ce16    10.002   .     S
Ce13     Er359    10.004   .     S
Ce14     Ce15    10.002   .     S
Ce14     Er217    10.004   .     S
Ce15     Ce16    9.999   .     S
Ce15     Er161    10.004   .     S
Ce16     Er169    10.004   .     S
Ce17     Ce18    9.999   .     S
Ce17     Ce20    10.002   .     S
Ce17     Er331    10.004   .     S
Ce18     Ce19    10.002   .     S
Ce18     Er221    10.004   .     S
Ce19     Ce20    9.999   .     S
Ce19     Er173    10.004   .     S
Ce20     Er357    10.004   .     S
Ce21     Ce22    9.999   .     S
Ce21     Ce23    10.002   .     S
Ce21     Er165    10.004   .     S
Ce22     Ce24    10.002   .     S
Ce22     Er171    10.004   .     S
Ce23     Ce24    9.999   .     S
Ce23     Er301    10.004   .     S
Ce24     Er329    10.004   .     S
Ce25     Ce26    9.999   1_556     S
Ce25     Ce27    10.002   .     S
Ce25     Er265    10.004   .     S
Ce26     Ce25    9.999   1_554     S
Ce26     Ce28    10.002   .     S
Ce26     Er333    10.004   .     S
Ce27     Ce28    9.999   1_556     S
Ce27     Er247    10.004   .     S
Ce28     Ce27    9.999   1_554     S
Ce28     Er259    10.004   .     S
Ce29     Ce30    9.999   1_655     S
Ce29     Ce31    10.002   .     S
Ce29     Er177    10.004   .     S
Ce30     Ce29    9.999   1_455     S
Ce30     Ce32    10.002   .     S
Ce30     Er361    10.004   .     S
Ce31     Ce32    9.999   1_655     S
Ce31     Er285    10.004   .     S
Ce32     Ce31    9.999   1_455     S
Ce32     Er283    10.004   .     S
Ce33     Ce34    9.999   1_565     S
Ce33     Ce35    10.002   .     S
Ce33     Er225    10.004   .     S
Ce34     Ce33    9.999   1_545     S
Ce34     Ce36    10.002   .     S
Ce34     Er305    10.004   .     S
Ce35     Ce36    9.999   1_565     S
Ce35     Er199    10.004   .     S
Ce36     Ce35    9.999   1_545     S
Ce36     Er211    10.004   .     S
Ce37     Ce38    9.999   1_556     S
Ce37     Ce39    10.002   .     S
Ce37     Er229    10.004   .     S
Ce38     Ce37    9.999   1_554     S
Ce38     Ce40    10.002   .     S
Ce38     Er307    10.004   .     S
Ce39     Ce40    9.999   1_556     S
Ce39     Er287    10.004   .     S
Ce40     Ce39    9.999   1_554     S
Ce40     Er299    10.004   .     S
Ce41     Ce42    9.999   1_565     S
Ce41     Ce43    10.002   .     S
Ce41     Er181    10.004   .     S
Ce42     Ce41    9.999   1_545     S
Ce42     Ce44    10.002   .     S
Ce42     Er363    10.004   .     S
Ce43     Ce44    9.999   1_565     S
Ce43     Er245    10.004   .     S
Ce44     Ce43    9.999   1_545     S
Ce44     Er243    10.004   .     S
Ce45     Ce46    9.999   1_655     S
Ce45     Ce47    10.002   .     S
Ce45     Er269    10.004   .     S
Ce46     Ce45    9.999   1_455     S
Ce46     Ce48    10.002   .     S
Ce46     Er335    10.004   .     S
Ce47     Ce48    9.999   1_655     S
Ce47     Er197    10.004   .     S
Ce48     Ce47    9.999   1_455     S
Ce48     Er195    10.004   .     S
Ce49     Ce50    9.999   .     S
Ce49     Ce52    10.002   .     S
Ce49     Er213    10.004   .     S
Ce50     Ce51    10.002   .     S
Ce50     Er167    10.004   .     S
Ce51     Ce52    9.999   .     S
Ce51     Er117    10.004   .     S
Ce52     Er97    10.004   .     S
Ce53     Ce54    9.999   .     S
Ce53     Ce55    10.002   .     S
Ce53     Er157    10.004   .     S
Ce54     Ce56    10.002   .     S
Ce54     Er219    10.004   .     S
Ce55     Ce56    9.999   .     S
Ce55     Er137    10.004   .     S
Ce56     Er133    10.004   .     S
Ce57     Ce58    9.999   .     S
Ce57     Ce60    10.002   .     S
Ce57     Er261    10.004   .     S
Ce58     Ce59    10.002   .     S
Ce58     Er223    10.004   .     S
Ce59     Ce60    9.999   .     S
Ce59     Er101    10.004   .     S
Ce60     Er113    10.004   .     S
Ce61     Ce62    9.999   .     S
Ce61     Ce64    10.002   .     S
Ce61     Er159    10.004   .     S
Ce62     Ce63    10.002   .     S
Ce62     Er175    10.004   .     S
Ce63     Ce64    9.999   .     S
Ce63     Er103    10.004   .     S
Ce64     Er121    10.004   .     S
Ce65     Ce66    9.999   .     S
Ce65     Ce68    10.002   .     S
Ce65     Er215    10.004   .     S
Ce66     Ce67    10.002   .     S
Ce66     Er163    10.004   .     S
Ce67     Ce68    9.999   .     S
Ce67     Er135    10.004   .     S
Ce68     Er129    10.004   .     S
Ce69     Ce70    9.999   .     S
Ce69     Ce71    10.002   .     S
Ce69     Er263    10.004   .     S
Ce70     Ce72    10.002   .     S
Ce70     Er303    10.004   .     S
Ce71     Ce72    9.999   .     S
Ce71     Er105    10.004   .     S
Ce72     Er119    10.004   .     S
Ce73     Ce74    9.999   .     S
Ce73     Ce75    10.002   .     S
Ce73     Er125    10.004   .     S
Ce74     Ce76    10.002   .     S
Ce74     Er107    10.004   .     S
Ce75     Ce76    9.999   .     S
Ce75     Er111    10.004   .     S
Ce76     Er115    10.004   .     S
Ce77     Ce78    9.999   .     S
Ce77     Ce80    10.002   .     S
Ce77     Er131    10.004   .     S
Ce78     Ce79    10.002   .     S
Ce78     Er141    10.004   .     S
Ce79     Ce80    9.999   .     S
Ce79     Er127    10.004   .     S
Ce80     Er99    10.004   .     S
Ce81     Ce82    9.999   .     S
Ce81     Ce83    10.002   .     S
Ce81     Er109    10.004   .     S
Ce82     Ce84    10.002   .     S
Ce82     Er123    10.004   .     S
Ce83     Ce84    9.999   .     S
Ce83     Er143    10.004   .     S
Ce84     Er139    10.004   .     S
Ce85     Ce86    9.999   1_556     S
Ce85     Ce87    10.002   .     S
Ce85     Er149    10.004   .     S
Ce86     Ce85    9.999   1_554     S
Ce86     Ce88    10.002   .     S
Ce86     Er271    10.004   .     S
Ce87     Ce88    9.999   1_556     S
Ce87     Er147    10.004   .     S
Ce88     Ce87    9.999   1_554     S
Ce88     Er227    10.004   .     S
Ce89     Ce90    9.999   1_655     S
Ce89     Ce91    10.002   .     S
Ce89     Er153    10.004   .     S
Ce90     Ce89    9.999   1_455     S
Ce90     Ce92    10.002   .     S
Ce90     Er183    10.004   .     S
Ce91     Ce92    9.999   1_655     S
Ce91     Er151    10.004   .     S
Ce92     Ce91    9.999   1_455     S
Ce92     Er267    10.004   .     S
Ce93     Ce94    9.999   1_565     S
Ce93     Ce95    10.002   .     S
Ce93     Er145    10.004   .     S
Ce94     Ce93    9.999   1_545     S
Ce94     Ce96    10.002   .     S
Ce94     Er231    10.004   .     S
Ce95     Ce96    9.999   1_565     S
Ce95     Er155    10.004   .     S
Ce96     Ce95    9.999   1_545     S
Ce96     Er179    10.004   .     S
Er97     V98    9.998   .     S
Er97     Er99    9.999   .     S
V98     V100    10.0   .     S
V98     Ti379    10.004   .     S
Er99     V100    9.998   .     S
V100     Ti273    10.004   .     S
Er101     V102    9.998   .     S
Er101     Er103    9.999   .     S
V102     V104    10.0   .     S
V102     Ti313    10.004   .     S
Er103     V104    9.998   .     S
V104     Ti365    10.004   .     S
Er105     V106    9.998   .     S
Er105     Er107    9.999   .     S
V106     V108    10.0   .     S
V106     Ti351    10.004   .     S
Er107     V108    9.998   .     S
V108     Ti191    10.004   .     S
Er109     V110    9.998   .     S
Er109     Er111    9.999   .     S
V110     V112    10.0   .     S
V110     Ti233    10.004   .     S
Er111     V112    9.998   .     S
V112     Ti207    10.004   .     S
Er113     V114    9.998   .     S
Er113     Er115    9.999   .     S
V114     V116    10.0   .     S
V114     Ti311    10.004   .     S
Er115     V116    9.998   .     S
V116     Ti201    10.004   .     S
Er117     V118    9.998   .     S
Er117     Er119    9.999   .     S
V118     V120    10.0   .     S
V118     Ti381    10.004   .     S
Er119     V120    9.998   .     S
V120     Ti355    10.004   .     S
Er121     V122    9.998   .     S
Er121     Er123    9.999   .     S
V122     V124    10.0   .     S
V122     Ti369    10.004   .     S
Er123     V124    9.998   .     S
V124     Ti239    10.004   .     S
Er125     V126    9.998   .     S
Er125     Er127    9.999   .     S
V126     V128    10.0   .     S
V126     Ti185    10.004   .     S
Er127     V128    9.998   .     S
V128     Ti279    10.004   .     S
Er129     V130    9.998   .     S
Er129     Er131    9.999   .     S
V130     V132    10.0   .     S
V130     Ti321    10.004   .     S
Er131     V132    9.998   .     S
V132     Ti295    10.004   .     S
Er133     V134    9.998   .     S
Er133     Er135    9.999   .     S
V134     V136    10.0   .     S
V134     Ti341    10.004   .     S
Er135     V136    9.998   .     S
V136     Ti327    10.004   .     S
Er137     V138    9.998   .     S
Er137     Er139    9.999   .     S
V138     V140    10.0   .     S
V138     Ti339    10.004   .     S
Er139     V140    9.998   .     S
V140     Ti249    10.004   .     S
Er141     V142    9.998   .     S
Er141     Er143    9.999   .     S
V142     V144    10.0   .     S
V142     Ti289    10.004   .     S
Er143     V144    9.998   .     S
V144     Ti255    10.004   .     S
Er145     V146    9.998   .     S
Er145     Er147    9.999   .     S
V146     V148    10.0   .     S
V146     Ti237    10.004   .     S
Er147     V148    9.998   .     S
V148     Ti253    10.004   .     S
Er149     V150    9.998   .     S
Er149     Er151    9.999   .     S
V150     V152    10.0   .     S
V150     Ti293    10.004   .     S
Er151     V152    9.998   .     S
V152     Ti277    10.004   .     S
Er153     V154    9.998   .     S
Er153     Er155    9.999   .     S
V154     V156    10.0   .     S
V154     Ti189    10.004   .     S
Er155     V156    9.998   .     S
V156     Ti205    10.004   .     S
Er157     V158    9.998   .     S
Er157     Er159    9.999   .     S
V158     V160    10.0   .     S
V158     Ti280    10.004   .     S
Er159     V160    9.998   .     S
V160     Ti186    10.004   .     S
Er161     V162    9.998   .     S
Er161     Er163    9.999   .     S
V162     V164    10.0   .     S
V162     Ti370    10.004   .     S
Er163     V164    9.998   .     S
V164     Ti240    10.004   .     S
Er165     V166    9.998   .     S
Er165     Er167    9.999   .     S
V166     V168    10.0   .     S
V166     Ti312    10.004   .     S
Er167     V168    9.998   .     S
V168     Ti202    10.004   .     S
Er169     V170    9.998   .     S
Er169     Er171    9.999   .     S
V170     V172    10.0   .     S
V170     Ti366    10.004   .     S
Er171     V172    9.998   .     S
V172     Ti314    10.004   .     S
Er173     V174    9.998   .     S
Er173     Er175    9.999   .     S
V174     V176    10.0   .     S
V174     Ti352    10.004   .     S
Er175     V176    9.998   .     S
V176     Ti192    10.004   .     S
Er177     V178    9.998   .     S
Er177     Er179    9.999   .     S
V178     V180    10.0   .     S
V178     Ti377    10.004   .     S
Er179     V180    9.998   .     S
V180     Ti203    10.004   .     S
Er181     V182    9.998   .     S
Er181     Er183    9.999   .     S
V182     V184    10.0   .     S
V182     Ti367    10.004   .     S
Er183     V184    9.998   .     S
V184     Ti187    10.004   .     S
Ti185     Ti186    9.994   1_655     S
Ti185     Ti189    9.996   .     S
Ti185     Ti191    9.999   .     S
Ti186     Ti185    9.994   1_455     S
Ti186     Ti187    9.996   .     S
Ti186     Ti192    9.999   .     S
Ti187     Ti188    9.994   .     S
Ti187     Ti189    9.999   1_455     S
Ti188     Ti192    9.996   .     S
Ti188     Ti190    9.999   1_455     S
Ti188     V196    10.004   .     S
Ti189     Ti190    9.994   .     S
Ti189     Ti187    9.999   1_655     S
Ti190     Ti191    9.996   .     S
Ti190     Ti188    9.999   1_655     S
Ti190     V198    10.004   .     S
Ti191     Ti192    9.994   1_655     S
Ti192     Ti191    9.994   1_455     S
Er193     V194    9.998   .     S
Er193     Er195    9.999   .     S
V194     V196    10.0   .     S
V194     Ti368    10.004   .     S
Er195     V196    9.998   .     S
Er197     V198    9.998   .     S
Er197     Er199    9.999   .     S
V198     V200    10.0   .     S
Er199     V200    9.998   .     S
V200     Ti206    10.004   .     S
Ti201     Ti202    9.994   1_565     S
Ti201     Ti206    9.996   .     S
Ti201     Ti207    9.999   .     S
Ti202     Ti201    9.994   1_545     S
Ti202     Ti204    9.996   .     S
Ti202     Ti208    9.999   .     S
Ti203     Ti204    9.994   .     S
Ti203     Ti208    9.996   .     S
Ti203     Ti205    9.999   1_545     S
Ti204     Ti206    9.999   1_545     S
Ti204     V212    10.004   .     S
Ti205     Ti206    9.994   .     S
Ti205     Ti207    9.996   .     S
Ti205     Ti203    9.999   1_565     S
Ti206     Ti204    9.999   1_565     S
Ti207     Ti208    9.994   1_565     S
Ti208     Ti207    9.994   1_545     S
Ti208     V214    10.004   .     S
Er209     V210    9.998   .     S
Er209     Er211    9.999   .     S
V210     V212    10.0   .     S
V210     Ti378    10.004   .     S
Er211     V212    9.998   .     S
Er213     V214    9.998   .     S
Er213     Er215    9.999   .     S
V214     V216    10.0   .     S
Er215     V216    9.998   .     S
V216     Ti234    10.004   .     S
Er217     V218    9.998   .     S
Er217     Er219    9.999   .     S
V218     V220    10.0   .     S
V218     Ti380    10.004   .     S
Er219     V220    9.998   .     S
V220     Ti274    10.004   .     S
Er221     V222    9.998   .     S
Er221     Er223    9.999   .     S
V222     V224    10.0   .     S
V222     Ti340    10.004   .     S
Er223     V224    9.998   .     S
V224     Ti250    10.004   .     S
Er225     V226    9.998   .     S
Er225     Er227    9.999   .     S
V226     V228    10.0   .     S
V226     Ti309    10.004   .     S
Er227     V228    9.998   .     S
V228     Ti251    10.004   .     S
Er229     V230    9.998   .     S
Er229     Er231    9.999   .     S
V230     V232    10.0   .     S
V230     Ti325    10.004   .     S
Er231     V232    9.998   .     S
V232     Ti235    10.004   .     S
Ti233     Ti234    9.994   1_565     S
Ti233     Ti237    9.996   .     S
Ti233     Ti239    9.999   .     S
Ti234     Ti233    9.994   1_545     S
Ti234     Ti235    9.996   .     S
Ti234     Ti240    9.999   .     S
Ti235     Ti236    9.994   .     S
Ti235     Ti237    9.999   1_545     S
Ti236     Ti240    9.996   .     S
Ti236     Ti238    9.999   1_545     S
Ti236     V244    10.004   .     S
Ti237     Ti238    9.994   .     S
Ti237     Ti235    9.999   1_565     S
Ti238     Ti239    9.996   .     S
Ti238     Ti236    9.999   1_565     S
Ti238     V246    10.004   .     S
Ti239     Ti240    9.994   1_565     S
Ti240     Ti239    9.994   1_545     S
Er241     V242    9.998   .     S
Er241     Er243    9.999   .     S
V242     V244    10.0   .     S
V242     Ti326    10.004   .     S
Er243     V244    9.998   .     S
Er245     V246    9.998   .     S
Er245     Er247    9.999   .     S
V246     V248    10.0   .     S
Er247     V248    9.998   .     S
V248     Ti254    10.004   .     S
Ti249     Ti250    9.994   1_556     S
Ti249     Ti254    9.996   .     S
Ti249     Ti255    9.999   .     S
Ti250     Ti249    9.994   1_554     S
Ti250     Ti252    9.996   .     S
Ti250     Ti256    9.999   .     S
Ti251     Ti252    9.994   .     S
Ti251     Ti256    9.996   .     S
Ti251     Ti253    9.999   1_554     S
Ti252     Ti254    9.999   1_554     S
Ti252     V260    10.004   .     S
Ti253     Ti254    9.994   .     S
Ti253     Ti255    9.996   .     S
Ti253     Ti251    9.999   1_556     S
Ti254     Ti252    9.999   1_556     S
Ti255     Ti256    9.994   1_556     S
Ti256     Ti255    9.994   1_554     S
Ti256     V262    10.004   .     S
Er257     V258    9.998   .     S
Er257     Er259    9.999   .     S
V258     V260    10.0   .     S
V258     Ti310    10.004   .     S
Er259     V260    9.998   .     S
Er261     V262    9.998   .     S
Er261     Er263    9.999   .     S
V262     V264    10.0   .     S
Er263     V264    9.998   .     S
V264     Ti290    10.004   .     S
Er265     V266    9.998   .     S
Er265     Er267    9.999   .     S
V266     V268    10.0   .     S
V266     Ti337    10.004   .     S
Er267     V268    9.998   .     S
V268     Ti275    10.004   .     S
Er269     V270    9.998   .     S
Er269     Er271    9.999   .     S
V270     V272    10.0   .     S
V270     Ti353    10.004   .     S
Er271     V272    9.998   .     S
V272     Ti291    10.004   .     S
Ti273     Ti274    9.994   1_655     S
Ti273     Ti278    9.996   .     S
Ti273     Ti279    9.999   .     S
Ti274     Ti273    9.994   1_455     S
Ti274     Ti276    9.996   .     S
Ti274     Ti280    9.999   .     S
Ti275     Ti276    9.994   .     S
Ti275     Ti280    9.996   .     S
Ti275     Ti277    9.999   1_455     S
Ti276     Ti278    9.999   1_455     S
Ti276     V284    10.004   .     S
Ti277     Ti278    9.994   .     S
Ti277     Ti279    9.996   .     S
Ti277     Ti275    9.999   1_655     S
Ti278     Ti276    9.999   1_655     S
Ti278     V286    10.004   .     S
Ti279     Ti280    9.994   1_655     S
Ti280     Ti279    9.994   1_455     S
Er281     V282    9.998   .     S
Er281     Er283    9.999   .     S
V282     V284    10.0   .     S
V282     Ti338    10.004   .     S
Er283     V284    9.998   .     S
Er285     V286    9.998   .     S
Er285     Er287    9.999   .     S
V286     V288    10.0   .     S
Er287     V288    9.998   .     S
V288     Ti294    10.004   .     S
Ti289     Ti290    9.994   1_556     S
Ti289     Ti293    9.996   .     S
Ti289     Ti295    9.999   .     S
Ti290     Ti289    9.994   1_554     S
Ti290     Ti291    9.996   .     S
Ti290     Ti296    9.999   .     S
Ti291     Ti292    9.994   .     S
Ti291     Ti293    9.999   1_554     S
Ti292     Ti296    9.996   .     S
Ti292     Ti294    9.999   1_554     S
Ti292     V300    10.004   .     S
Ti293     Ti294    9.994   .     S
Ti293     Ti291    9.999   1_556     S
Ti294     Ti295    9.996   .     S
Ti294     Ti292    9.999   1_556     S
Ti295     Ti296    9.994   1_556     S
Ti296     Ti295    9.994   1_554     S
Ti296     V304    10.004   .     S
Er297     V298    9.998   .     S
Er297     Er299    9.999   .     S
V298     V300    10.0   .     S
V298     Ti354    10.004   .     S
Er299     V300    9.998   .     S
Er301     V302    9.998   .     S
Er301     Er303    9.999   .     S
V302     V304    10.0   .     S
V302     Ti322    10.004   .     S
Er303     V304    9.998   .     S
Er305     V306    9.998   .     S
Er305     Er307    9.999   .     S
V306     V308    10.0   .     S
V306     Ti315    10.004   .     S
Er307     V308    9.998   .     S
V308     Ti323    10.004   .     S
Ti309     Ti310    9.994   .     S
Ti309     Ti311    9.996   .     S
Ti309     Ti315    9.999   1_565     S
Ti310     Ti313    9.996   .     S
Ti310     Ti316    9.999   1_565     S
Ti311     Ti312    9.994   1_565     S
Ti311     Ti313    9.999   .     S
Ti312     Ti311    9.994   1_545     S
Ti312     Ti315    9.996   .     S
Ti312     Ti314    9.999   .     S
Ti313     Ti314    9.994   1_565     S
Ti314     Ti313    9.994   1_545     S
Ti314     Ti316    9.996   .     S
Ti315     Ti316    9.994   .     S
Ti315     Ti309    9.999   1_545     S
Ti316     Ti310    9.999   1_545     S
Ti316     V318    10.004   .     S
Er317     V318    9.998   .     S
Er317     Er319    9.999   .     S
V318     V320    10.0   .     S
Er319     V320    9.998   .     S
V320     Ti324    10.004   .     S
Ti321     Ti322    9.994   1_556     S
Ti321     Ti325    9.996   .     S
Ti321     Ti327    9.999   .     S
Ti322     Ti321    9.994   1_554     S
Ti322     Ti323    9.996   .     S
Ti322     Ti328    9.999   .     S
Ti323     Ti324    9.994   .     S
Ti323     Ti325    9.999   1_554     S
Ti324     Ti328    9.996   .     S
Ti324     Ti326    9.999   1_554     S
Ti325     Ti326    9.994   .     S
Ti325     Ti323    9.999   1_556     S
Ti326     Ti327    9.996   .     S
Ti326     Ti324    9.999   1_556     S
Ti327     Ti328    9.994   1_556     S
Ti328     Ti327    9.994   1_554     S
Ti328     V330    10.004   .     S
Er329     V330    9.998   .     S
Er329     Er331    9.999   .     S
V330     V332    10.0   .     S
Er331     V332    9.998   .     S
V332     Ti342    10.004   .     S
Er333     V334    9.998   .     S
Er333     Er335    9.999   .     S
V334     V336    10.0   .     S
V334     Ti343    10.004   .     S
Er335     V336    9.998   .     S
V336     Ti349    10.004   .     S
Ti337     Ti338    9.994   .     S
Ti337     Ti339    9.996   .     S
Ti337     Ti343    9.999   1_556     S
Ti338     Ti341    9.996   .     S
Ti338     Ti344    9.999   1_556     S
Ti339     Ti340    9.994   1_556     S
Ti339     Ti341    9.999   .     S
Ti340     Ti339    9.994   1_554     S
Ti340     Ti343    9.996   .     S
Ti340     Ti342    9.999   .     S
Ti341     Ti342    9.994   1_556     S
Ti342     Ti341    9.994   1_554     S
Ti342     Ti344    9.996   .     S
Ti343     Ti344    9.994   .     S
Ti343     Ti337    9.999   1_554     S
Ti344     Ti338    9.999   1_554     S
Ti344     V346    10.004   .     S
Er345     V346    9.998   .     S
Er345     Er347    9.999   .     S
V346     V348    10.0   .     S
Er347     V348    9.998   .     S
V348     Ti350    10.004   .     S
Ti349     Ti350    9.994   .     S
Ti349     Ti352    9.996   .     S
Ti349     Ti353    9.999   1_455     S
Ti350     Ti356    9.996   .     S
Ti350     Ti354    9.999   1_455     S
Ti351     Ti352    9.994   1_655     S
Ti351     Ti353    9.996   .     S
Ti351     Ti355    9.999   .     S
Ti352     Ti351    9.994   1_455     S
Ti352     Ti356    9.999   .     S
Ti353     Ti354    9.994   .     S
Ti353     Ti349    9.999   1_655     S
Ti354     Ti355    9.996   .     S
Ti354     Ti350    9.999   1_655     S
Ti355     Ti356    9.994   1_655     S
Ti356     Ti355    9.994   1_455     S
Ti356     V358    10.004   .     S
Er357     V358    9.998   .     S
Er357     Er359    9.999   .     S
V358     V360    10.0   .     S
Er359     V360    9.998   .     S
V360     Ti382    10.004   .     S
Er361     V362    9.998   .     S
Er361     Er363    9.999   .     S
V362     V364    10.0   .     S
V362     Ti383    10.004   .     S
Er363     V364    9.998   .     S
V364     Ti371    10.004   .     S
Ti365     Ti366    9.994   1_565     S
Ti365     Ti368    9.996   .     S
Ti365     Ti369    9.999   .     S
Ti366     Ti365    9.994   1_545     S
Ti366     Ti372    9.996   .     S
Ti366     Ti370    9.999   .     S
Ti367     Ti368    9.994   .     S
Ti367     Ti369    9.996   .     S
Ti367     Ti371    9.999   1_565     S
Ti368     Ti372    9.999   1_565     S
Ti369     Ti370    9.994   1_565     S
Ti370     Ti369    9.994   1_545     S
Ti370     Ti371    9.996   .     S
Ti371     Ti372    9.994   .     S
Ti371     Ti367    9.999   1_545     S
Ti372     Ti368    9.999   1_545     S
Ti372     V374    10.004   .     S
Er373     V374    9.998   .     S
Er373     Er375    9.999   .     S
V374     V376    10.0   .     S
Er375     V376    9.998   .     S
V376     Ti384    10.004   .     S
Ti377     Ti378    9.994   .     S
Ti377     Ti379    9.996   .     S
Ti377     Ti383    9.999   1_655     S
Ti378     Ti381    9.996   .     S
Ti378     Ti384    9.999   1_655     S
Ti379     Ti380    9.994   1_655     S
Ti379     Ti381    9.999   .     S
Ti380     Ti379    9.994   1_455     S
Ti380     Ti383    9.996   .     S
Ti380     Ti382    9.999   .     S
Ti381     Ti382    9.994   1_655     S
Ti382     Ti381    9.994   1_455     S
Ti382     Ti384    9.996   .     S
Ti383     Ti384    9.994   .     S
Ti383     Ti377    9.999   1_455     S
Ti384     Ti378    9.999   1_455     S
