data_dnya
_audit_creation_date              2020-02-04
_audit_creation_method            'Pymatgen'
_symmetry_space_group_name_H-M    'P1'
_symmetry_Int_Tables_number       1
loop_
_symmetry_equiv_pos_as_xyz
  x,y,z
_cell_length_a                    112.755
_cell_length_b                    112.755
_cell_length_c                    112.755
_cell_angle_alpha                 90.0
_cell_angle_beta                 90.0
_cell_angle_gamma                 90.0
loop_
_atom_site_label
_atom_site_type_symbol
_atom_site_fract_x
_atom_site_fract_y
_atom_site_fract_z
Ce1     Ce     0.9117   0.0371   0.9744
Ce2     Ce     0.9629   0.0883   0.0256
Ce3     Ce     0.9744   0.0371   0.9117
Ce4     Ce     0.0256   0.0883   0.9629
Ce5     Ce     0.9117   0.9744   0.0371
Ce6     Ce     0.9629   0.0256   0.0883
Ce7     Ce     0.9744   0.9117   0.0371
Ce8     Ce     0.0256   0.9629   0.0883
Ce9     Ce     0.0371   0.9117   0.9744
Ce10     Ce     0.0883   0.9629   0.0256
Ce11     Ce     0.0371   0.9744   0.9117
Ce12     Ce     0.0883   0.0256   0.9629
Ce13     Ce     0.2756   0.2129   0.9117
Ce14     Ce     0.2244   0.1617   0.9629
Ce15     Ce     0.3383   0.2129   0.9744
Ce16     Ce     0.2871   0.1617   0.0256
Ce17     Ce     0.2129   0.3383   0.9744
Ce18     Ce     0.1617   0.2871   0.0256
Ce19     Ce     0.2129   0.2756   0.9117
Ce20     Ce     0.1617   0.2244   0.9629
Ce21     Ce     0.3383   0.2756   0.0371
Ce22     Ce     0.2871   0.2244   0.0883
Ce23     Ce     0.2244   0.2871   0.0883
Ce24     Ce     0.2756   0.3383   0.0371
Ce25     Ce     0.3383   0.9744   0.2129
Ce26     Ce     0.2871   0.0256   0.1617
Ce27     Ce     0.2756   0.9117   0.2129
Ce28     Ce     0.2244   0.9629   0.1617
Ce29     Ce     0.3383   0.0371   0.2756
Ce30     Ce     0.2871   0.0883   0.2244
Ce31     Ce     0.2756   0.0371   0.3383
Ce32     Ce     0.2244   0.0883   0.2871
Ce33     Ce     0.2129   0.9744   0.3383
Ce34     Ce     0.1617   0.0256   0.2871
Ce35     Ce     0.2129   0.9117   0.2756
Ce36     Ce     0.1617   0.9629   0.2244
Ce37     Ce     0.9744   0.3383   0.2129
Ce38     Ce     0.0256   0.2871   0.1617
Ce39     Ce     0.9117   0.2756   0.2129
Ce40     Ce     0.9629   0.2244   0.1617
Ce41     Ce     0.0371   0.3383   0.2756
Ce42     Ce     0.0883   0.2871   0.2244
Ce43     Ce     0.0883   0.2244   0.2871
Ce44     Ce     0.0371   0.2756   0.3383
Ce45     Ce     0.9744   0.2129   0.3383
Ce46     Ce     0.0256   0.1617   0.2871
Ce47     Ce     0.9117   0.2129   0.2756
Ce48     Ce     0.9629   0.1617   0.2244
V49     V     0.8273   0.062   0.9854
V50     V     0.7646   0.062   0.9227
Er51     Er     0.7458   0.0915   0.0042
V52     V     0.6879   0.3273   0.2646
V53     V     0.688   0.2646   0.3273
Er54     Er     0.6585   0.2458   0.2458
V55     V     0.562   0.2646   0.9227
V56     V     0.5621   0.3273   0.9854
Er57     Er     0.5915   0.2458   0.0042
V58     V     0.8273   0.1879   0.2646
V59     V     0.7646   0.188   0.3273
Er60     Er     0.7458   0.1585   0.2458
V61     V     0.8273   0.9854   0.062
V62     V     0.7646   0.9227   0.062
Er63     Er     0.7458   0.0042   0.0915
V64     V     0.8273   0.2646   0.188
V65     V     0.7646   0.3273   0.1879
Er66     Er     0.7458   0.2458   0.1585
V67     V     0.4854   0.188   0.9227
V68     V     0.4227   0.188   0.9854
Er69     Er     0.5042   0.1585   0.0042
V70     V     0.4854   0.9227   0.188
V71     V     0.4227   0.9854   0.188
Er72     Er     0.5042   0.0042   0.1585
V73     V     0.688   0.9854   0.9227
V74     V     0.688   0.9227   0.9854
Er75     Er     0.6585   0.0042   0.0042
V76     V     0.4854   0.062   0.3273
V77     V     0.4227   0.062   0.2646
Er78     Er     0.5042   0.0915   0.2458
V79     V     0.4227   0.2646   0.062
V80     V     0.4854   0.3273   0.062
Er81     Er     0.5042   0.2458   0.0915
Ti82     Ti     0.5623   0.125   0.1877
Ti83     Ti     0.5623   0.1877   0.125
Ti84     Ti     0.5623   0.125   0.0623
Ti85     Ti     0.5623   0.0623   0.125
Ti86     Ti     0.6877   0.125   0.1877
Ti87     Ti     0.6877   0.125   0.0623
Ti88     Ti     0.6877   0.1877   0.125
Ti89     Ti     0.6877   0.0623   0.125
Ti90     Ti     0.625   0.0623   0.1877
Ti91     Ti     0.625   0.1877   0.1877
Ti92     Ti     0.625   0.1877   0.0623
Ti93     Ti     0.625   0.0623   0.0623
V94     V     0.5621   0.9227   0.2646
V95     V     0.562   0.9854   0.3273
Er96     Er     0.5915   0.0042   0.2458
V97     V     0.062   0.8273   0.9854
V98     V     0.062   0.7646   0.9227
Er99     Er     0.0915   0.7458   0.0042
V100     V     0.9854   0.8273   0.062
V101     V     0.9227   0.7646   0.062
Er102     Er     0.0042   0.7458   0.0915
V103     V     0.062   0.4227   0.2646
V104     V     0.062   0.4854   0.3273
Er105     Er     0.0915   0.5042   0.2458
V106     V     0.2646   0.4227   0.062
V107     V     0.3273   0.4854   0.062
Er108     Er     0.2458   0.5042   0.0915
V109     V     0.188   0.8273   0.2646
V110     V     0.188   0.7646   0.3273
Er111     Er     0.1585   0.7458   0.2458
V112     V     0.2646   0.8273   0.1879
V113     V     0.3273   0.7646   0.188
Er114     Er     0.2458   0.7458   0.1585
V115     V     0.3273   0.688   0.2646
V116     V     0.2646   0.688   0.3273
Er117     Er     0.2458   0.6585   0.2458
V118     V     0.2646   0.5621   0.9227
V119     V     0.3273   0.5621   0.9854
Er120     Er     0.2458   0.5915   0.0042
V121     V     0.9227   0.562   0.2646
V122     V     0.9854   0.5621   0.3273
Er123     Er     0.0042   0.5915   0.2458
V124     V     0.9854   0.688   0.9227
V125     V     0.9227   0.688   0.9854
Er126     Er     0.0042   0.6585   0.0042
V127     V     0.188   0.4854   0.9227
V128     V     0.188   0.4227   0.9854
Er129     Er     0.1585   0.5042   0.0042
V130     V     0.9227   0.4854   0.188
V131     V     0.9854   0.4227   0.188
Er132     Er     0.0042   0.5042   0.1585
Ti133     Ti     0.125   0.5623   0.1877
Ti134     Ti     0.125   0.5623   0.0623
Ti135     Ti     0.0623   0.5623   0.125
Ti136     Ti     0.0623   0.6877   0.125
Ti137     Ti     0.1877   0.6877   0.125
Ti138     Ti     0.1877   0.625   0.1877
Ti139     Ti     0.125   0.6877   0.1877
Ti140     Ti     0.125   0.6877   0.0623
Ti141     Ti     0.0623   0.625   0.0623
Ti142     Ti     0.1877   0.625   0.0623
Ti143     Ti     0.1877   0.5623   0.125
Ti144     Ti     0.0623   0.625   0.1877
Ce145     Ce     0.9629   0.7244   0.6617
Ce146     Ce     0.9117   0.7756   0.7129
Ce147     Ce     0.9744   0.8383   0.7129
Ce148     Ce     0.0256   0.7871   0.6617
Ce149     Ce     0.0371   0.8383   0.7756
Ce150     Ce     0.0883   0.7871   0.7244
Ce151     Ce     0.9117   0.7129   0.7756
Ce152     Ce     0.9629   0.6617   0.7244
Ce153     Ce     0.9744   0.7129   0.8383
Ce154     Ce     0.0256   0.6617   0.7871
Ce155     Ce     0.0371   0.7756   0.8383
Ce156     Ce     0.0883   0.7244   0.7871
V157     V     0.7646   0.688   0.8273
V158     V     0.8273   0.688   0.7646
Er159     Er     0.7458   0.6585   0.7458
V160     V     0.8273   0.7646   0.6879
V161     V     0.7646   0.8273   0.688
Er162     Er     0.7458   0.7458   0.6585
V163     V     0.6879   0.8273   0.7646
V164     V     0.688   0.7646   0.8273
Er165     Er     0.6585   0.7458   0.7458
V166     V     0.4854   0.5621   0.8273
V167     V     0.4227   0.562   0.7646
Er168     Er     0.5042   0.5915   0.7458
V169     V     0.562   0.4854   0.8273
V170     V     0.5621   0.4227   0.7646
Er171     Er     0.5915   0.5042   0.7458
V172     V     0.4854   0.8273   0.5621
V173     V     0.4227   0.7646   0.5621
Er174     Er     0.5042   0.7458   0.5915
V175     V     0.5621   0.8273   0.4854
V176     V     0.562   0.7646   0.4227
Er177     Er     0.5915   0.7458   0.5042
V178     V     0.8273   0.5621   0.4854
V179     V     0.7646   0.5621   0.4227
Er180     Er     0.7458   0.5915   0.5042
V181     V     0.8273   0.4854   0.562
V182     V     0.7646   0.4227   0.562
Er183     Er     0.7458   0.5042   0.5915
V184     V     0.4854   0.688   0.4227
V185     V     0.4227   0.688   0.4854
Er186     Er     0.5042   0.6585   0.5042
V187     V     0.688   0.4227   0.4854
V188     V     0.688   0.4854   0.4227
Er189     Er     0.6585   0.5042   0.5042
V190     V     0.4227   0.4854   0.688
V191     V     0.4854   0.4227   0.688
Er192     Er     0.5042   0.5042   0.6585
Ti193     Ti     0.625   0.6877   0.6877
Ti194     Ti     0.6877   0.625   0.6877
Ti195     Ti     0.6877   0.6877   0.625
Ti196     Ti     0.6877   0.5623   0.625
Ti197     Ti     0.625   0.5623   0.6877
Ti198     Ti     0.6877   0.625   0.5623
Ti199     Ti     0.625   0.5623   0.5623
Ti200     Ti     0.5623   0.5623   0.625
Ti201     Ti     0.5623   0.625   0.6877
Ti202     Ti     0.5623   0.625   0.5623
Ti203     Ti     0.5623   0.6877   0.625
Ti204     Ti     0.625   0.6877   0.5623
Ce205     Ce     0.5256   0.6617   0.2871
Ce206     Ce     0.4744   0.7129   0.3383
Ce207     Ce     0.4117   0.7129   0.2756
Ce208     Ce     0.4629   0.6617   0.2244
Ce209     Ce     0.4629   0.7244   0.1617
Ce210     Ce     0.4117   0.7756   0.2129
Ce211     Ce     0.4744   0.8383   0.2129
Ce212     Ce     0.5256   0.7871   0.1617
Ce213     Ce     0.5371   0.7756   0.3383
Ce214     Ce     0.5883   0.7244   0.2871
Ce215     Ce     0.5371   0.8383   0.2756
Ce216     Ce     0.5883   0.7871   0.2244
Ce217     Ce     0.6617   0.2244   0.4629
Ce218     Ce     0.7129   0.2756   0.4117
Ce219     Ce     0.6617   0.2871   0.5256
Ce220     Ce     0.7129   0.3383   0.4744
Ce221     Ce     0.7244   0.1617   0.4629
Ce222     Ce     0.7756   0.2129   0.4117
Ce223     Ce     0.8383   0.2129   0.4744
Ce224     Ce     0.7871   0.1617   0.5256
Ce225     Ce     0.7244   0.2871   0.5883
Ce226     Ce     0.7756   0.3383   0.5371
Ce227     Ce     0.8383   0.2756   0.5371
Ce228     Ce     0.7871   0.2244   0.5883
V229     V     0.5146   0.5773   0.312
V230     V     0.5773   0.5146   0.312
Er231     Er     0.4958   0.4958   0.3415
V232     V     0.312   0.5146   0.5773
V233     V     0.312   0.5773   0.5146
Er234     Er     0.3415   0.4958   0.4958
V235     V     0.312   0.2354   0.1727
V236     V     0.312   0.1727   0.2354
Er237     Er     0.3415   0.2542   0.2542
V238     V     0.4379   0.1727   0.5146
V239     V     0.438   0.2354   0.5773
Er240     Er     0.4085   0.2542   0.4958
V241     V     0.5773   0.2354   0.4379
V242     V     0.5146   0.1727   0.438
Er243     Er     0.4958   0.2542   0.4085
V244     V     0.5773   0.438   0.2354
V245     V     0.5146   0.4379   0.1727
Er246     Er     0.4958   0.4085   0.2542
V247     V     0.1727   0.438   0.5146
V248     V     0.2354   0.4379   0.5773
Er249     Er     0.2542   0.4085   0.4958
V250     V     0.1727   0.5146   0.4379
V251     V     0.2354   0.5773   0.438
Er252     Er     0.2542   0.4958   0.4085
V253     V     0.2354   0.312   0.1727
V254     V     0.1727   0.312   0.2354
Er255     Er     0.2542   0.3415   0.2542
V256     V     0.1727   0.2354   0.312
V257     V     0.2354   0.1727   0.312
Er258     Er     0.2542   0.2542   0.3415
V259     V     0.4379   0.5773   0.2354
V260     V     0.438   0.5146   0.1727
Er261     Er     0.4085   0.4958   0.2542
V262     V     0.5773   0.312   0.5146
V263     V     0.5146   0.312   0.5773
Er264     Er     0.4958   0.3415   0.4958
Ti265     Ti     0.4377   0.375   0.3123
Ti266     Ti     0.375   0.4377   0.4377
Ti267     Ti     0.3123   0.375   0.4377
Ti268     Ti     0.3123   0.4377   0.375
Ti269     Ti     0.375   0.3123   0.4377
Ti270     Ti     0.3123   0.3123   0.375
Ti271     Ti     0.3123   0.375   0.3123
Ti272     Ti     0.4377   0.375   0.4377
Ti273     Ti     0.4377   0.3123   0.375
Ti274     Ti     0.4377   0.4377   0.375
Ti275     Ti     0.375   0.3123   0.3123
Ti276     Ti     0.375   0.4377   0.3123
Ce277     Ce     0.2129   0.4744   0.8383
Ce278     Ce     0.1617   0.5256   0.7871
Ce279     Ce     0.3383   0.5371   0.7756
Ce280     Ce     0.2871   0.5883   0.7244
Ce281     Ce     0.2756   0.5371   0.8383
Ce282     Ce     0.2244   0.5883   0.7871
Ce283     Ce     0.2129   0.4117   0.7756
Ce284     Ce     0.1617   0.4629   0.7244
Ce285     Ce     0.2756   0.4117   0.7129
Ce286     Ce     0.2244   0.4629   0.6617
Ce287     Ce     0.2871   0.5256   0.6617
Ce288     Ce     0.3383   0.4744   0.7129
Ce289     Ce     0.2244   0.6617   0.4629
Ce290     Ce     0.2756   0.7129   0.4117
Ce291     Ce     0.2129   0.7756   0.4117
Ce292     Ce     0.1617   0.7244   0.4629
Ce293     Ce     0.2129   0.8383   0.4744
Ce294     Ce     0.1617   0.7871   0.5256
Ce295     Ce     0.2871   0.7244   0.5883
Ce296     Ce     0.3383   0.7756   0.5371
Ce297     Ce     0.2244   0.7871   0.5883
Ce298     Ce     0.2756   0.8383   0.5371
Ce299     Ce     0.2871   0.6617   0.5256
Ce300     Ce     0.3383   0.7129   0.4744
Ce301     Ce     0.4117   0.0371   0.4744
Ce302     Ce     0.4629   0.0883   0.5256
Ce303     Ce     0.4744   0.0371   0.4117
Ce304     Ce     0.5256   0.0883   0.4629
Ce305     Ce     0.5371   0.9744   0.4117
Ce306     Ce     0.5883   0.0256   0.4629
Ce307     Ce     0.4629   0.0256   0.5883
Ce308     Ce     0.4117   0.9744   0.5371
Ce309     Ce     0.5371   0.9117   0.4744
Ce310     Ce     0.5883   0.9629   0.5256
Ce311     Ce     0.5256   0.9629   0.5883
Ce312     Ce     0.4744   0.9117   0.5371
V313     V     0.5773   0.938   0.7354
V314     V     0.5146   0.938   0.6727
Er315     Er     0.4958   0.9085   0.7542
V316     V     0.5773   0.8121   0.0146
V317     V     0.5146   0.8121   0.0773
Er318     Er     0.4958   0.8415   0.9958
V319     V     0.5146   0.6727   0.938
V320     V     0.5773   0.7354   0.938
Er321     Er     0.4958   0.7542   0.9085
V322     V     0.312   0.7354   0.6727
V323     V     0.312   0.6727   0.7354
Er324     Er     0.3415   0.7542   0.7542
V325     V     0.312   0.0146   0.0773
V326     V     0.312   0.0773   0.0146
Er327     Er     0.3415   0.9958   0.9958
V328     V     0.438   0.0146   0.6727
V329     V     0.4379   0.0773   0.7354
Er330     Er     0.4085   0.9958   0.7542
V331     V     0.5773   0.0146   0.8121
V332     V     0.5146   0.0773   0.8121
Er333     Er     0.4958   0.9958   0.8415
V334     V     0.4379   0.6727   0.0146
V335     V     0.438   0.7354   0.0773
Er336     Er     0.4085   0.7542   0.9958
V337     V     0.1727   0.938   0.0146
V338     V     0.2354   0.938   0.0773
Er339     Er     0.2542   0.9085   0.9958
V340     V     0.1727   0.8121   0.7354
V341     V     0.2354   0.8121   0.6727
Er342     Er     0.2542   0.8415   0.7542
V343     V     0.2354   0.6727   0.8121
V344     V     0.1727   0.7354   0.812
Er345     Er     0.2542   0.7542   0.8415
V346     V     0.1727   0.0146   0.938
V347     V     0.2354   0.0773   0.938
Er348     Er     0.2542   0.9958   0.9085
Ti349     Ti     0.375   0.8123   0.8123
Ti350     Ti     0.375   0.9377   0.8123
Ti351     Ti     0.4377   0.875   0.8123
Ti352     Ti     0.375   0.9377   0.9377
Ti353     Ti     0.3123   0.9377   0.875
Ti354     Ti     0.375   0.8123   0.9377
Ti355     Ti     0.4377   0.8123   0.875
Ti356     Ti     0.4377   0.875   0.9377
Ti357     Ti     0.3123   0.875   0.9377
Ti358     Ti     0.3123   0.8123   0.875
Ti359     Ti     0.4377   0.9377   0.875
Ti360     Ti     0.3123   0.875   0.8123
Ce361     Ce     0.7756   0.4117   0.2129
Ce362     Ce     0.7244   0.4629   0.1617
Ce363     Ce     0.8383   0.4744   0.2129
Ce364     Ce     0.7871   0.5256   0.1617
Ce365     Ce     0.6617   0.4629   0.2244
Ce366     Ce     0.7129   0.4117   0.2756
Ce367     Ce     0.6617   0.5256   0.2871
Ce368     Ce     0.7129   0.4744   0.3383
Ce369     Ce     0.7871   0.5883   0.2244
Ce370     Ce     0.8383   0.5371   0.2756
Ce371     Ce     0.7244   0.5883   0.2871
Ce372     Ce     0.7756   0.5371   0.3383
V373     V     0.0146   0.6727   0.438
V374     V     0.0773   0.7354   0.4379
Er375     Er     0.9958   0.7542   0.4085
V376     V     0.938   0.7354   0.5773
V377     V     0.938   0.6727   0.5146
Er378     Er     0.9085   0.7542   0.4958
V379     V     0.7354   0.6727   0.312
V380     V     0.6727   0.7354   0.312
Er381     Er     0.7542   0.7542   0.3415
V382     V     0.7354   0.0773   0.438
V383     V     0.6727   0.0146   0.4379
Er384     Er     0.7542   0.9958   0.4085
V385     V     0.6727   0.938   0.5146
V386     V     0.7354   0.938   0.5773
Er387     Er     0.7542   0.9085   0.4958
V388     V     0.0146   0.8121   0.5773
V389     V     0.0773   0.8121   0.5146
Er390     Er     0.9958   0.8415   0.4958
V391     V     0.0146   0.0773   0.312
V392     V     0.0773   0.0146   0.312
Er393     Er     0.9958   0.9958   0.3415
V394     V     0.6727   0.8121   0.2354
V395     V     0.7354   0.8121   0.1727
Er396     Er     0.7542   0.8415   0.2542
V397     V     0.8121   0.7354   0.1727
V398     V     0.812   0.6727   0.2354
Er399     Er     0.8415   0.7542   0.2542
V400     V     0.0146   0.938   0.1727
V401     V     0.0773   0.938   0.2354
Er402     Er     0.9958   0.9085   0.2542
V403     V     0.8121   0.0146   0.5773
V404     V     0.8121   0.0773   0.5146
Er405     Er     0.8415   0.9958   0.4958
V406     V     0.938   0.0773   0.2354
V407     V     0.938   0.0146   0.1727
Er408     Er     0.9085   0.9958   0.2542
Ti409     Ti     0.8123   0.8123   0.375
Ti410     Ti     0.9377   0.875   0.3123
Ti411     Ti     0.9377   0.8123   0.375
Ti412     Ti     0.8123   0.9377   0.375
Ti413     Ti     0.9377   0.9377   0.375
Ti414     Ti     0.875   0.9377   0.4377
Ti415     Ti     0.9377   0.875   0.4377
Ti416     Ti     0.875   0.9377   0.3123
Ti417     Ti     0.8123   0.875   0.4377
Ti418     Ti     0.8123   0.875   0.3123
Ti419     Ti     0.875   0.8123   0.3123
Ti420     Ti     0.875   0.8123   0.4377
Ce421     Ce     0.0256   0.5883   0.4629
Ce422     Ce     0.9744   0.5371   0.4117
Ce423     Ce     0.9117   0.5371   0.4744
Ce424     Ce     0.9629   0.5883   0.5256
Ce425     Ce     0.9744   0.4117   0.5371
Ce426     Ce     0.0256   0.4629   0.5883
Ce427     Ce     0.9117   0.4744   0.5371
Ce428     Ce     0.9629   0.5256   0.5883
Ce429     Ce     0.0371   0.4744   0.4117
Ce430     Ce     0.0883   0.5256   0.4629
Ce431     Ce     0.0883   0.4629   0.5256
Ce432     Ce     0.0371   0.4117   0.4744
Ce433     Ce     0.6617   0.7244   0.9629
Ce434     Ce     0.7129   0.7756   0.9117
Ce435     Ce     0.7756   0.8383   0.0371
Ce436     Ce     0.7244   0.7871   0.0883
Ce437     Ce     0.6617   0.7871   0.0256
Ce438     Ce     0.7129   0.8383   0.9744
Ce439     Ce     0.8383   0.7756   0.0371
Ce440     Ce     0.7871   0.7244   0.0883
Ce441     Ce     0.7244   0.6617   0.9629
Ce442     Ce     0.7756   0.7129   0.9117
Ce443     Ce     0.7871   0.6617   0.0256
Ce444     Ce     0.8383   0.7129   0.9744
Ce445     Ce     0.4117   0.5371   0.9744
Ce446     Ce     0.4629   0.5883   0.0256
Ce447     Ce     0.4744   0.5371   0.9117
Ce448     Ce     0.5256   0.5883   0.9629
Ce449     Ce     0.5883   0.4629   0.0256
Ce450     Ce     0.5371   0.4117   0.9744
Ce451     Ce     0.5883   0.5256   0.9629
Ce452     Ce     0.5371   0.4744   0.9117
Ce453     Ce     0.4744   0.4117   0.0371
Ce454     Ce     0.5256   0.4629   0.0883
Ce455     Ce     0.4629   0.5256   0.0883
Ce456     Ce     0.4117   0.4744   0.0371
V457     V     0.0146   0.1727   0.938
V458     V     0.0773   0.2354   0.938
Er459     Er     0.9958   0.2542   0.9085
V460     V     0.0146   0.4379   0.6727
V461     V     0.0773   0.438   0.7354
Er462     Er     0.9958   0.4085   0.7542
V463     V     0.938   0.5146   0.6727
V464     V     0.938   0.5773   0.7354
Er465     Er     0.9085   0.4958   0.7542
V466     V     0.6727   0.312   0.7354
V467     V     0.7354   0.312   0.6727
Er468     Er     0.7542   0.3415   0.7542
V469     V     0.0773   0.312   0.0146
V470     V     0.0146   0.312   0.0773
Er471     Er     0.9958   0.3415   0.9958
V472     V     0.6727   0.438   0.0146
V473     V     0.7354   0.4379   0.0773
Er474     Er     0.7542   0.4085   0.9958
V475     V     0.938   0.1727   0.0146
V476     V     0.938   0.2354   0.0773
Er477     Er     0.9085   0.2542   0.9958
V478     V     0.8121   0.2354   0.6727
V479     V     0.812   0.1727   0.7354
Er480     Er     0.8415   0.2542   0.7542
V481     V     0.7354   0.1727   0.8121
V482     V     0.6727   0.2354   0.812
Er483     Er     0.7542   0.2542   0.8415
V484     V     0.7354   0.5773   0.938
V485     V     0.6727   0.5146   0.938
Er486     Er     0.7542   0.4958   0.9085
V487     V     0.8121   0.5146   0.0773
V488     V     0.8121   0.5773   0.0146
Er489     Er     0.8415   0.4958   0.9958
V490     V     0.0146   0.5773   0.8121
V491     V     0.0773   0.5146   0.8121
Er492     Er     0.9958   0.4958   0.8415
Ti493     Ti     0.9377   0.375   0.9377
Ti494     Ti     0.8123   0.375   0.9377
Ti495     Ti     0.8123   0.375   0.8123
Ti496     Ti     0.9377   0.375   0.8123
Ti497     Ti     0.875   0.3123   0.8123
Ti498     Ti     0.9377   0.4377   0.875
Ti499     Ti     0.875   0.4377   0.8123
Ti500     Ti     0.9377   0.3123   0.875
Ti501     Ti     0.8123   0.4377   0.875
Ti502     Ti     0.8123   0.3123   0.875
Ti503     Ti     0.875   0.3123   0.9377
Ti504     Ti     0.875   0.4377   0.9377
Ce505     Ce     0.5883   0.2244   0.7871
Ce506     Ce     0.5371   0.2756   0.8383
Ce507     Ce     0.4744   0.2129   0.8383
Ce508     Ce     0.5256   0.1617   0.7871
Ce509     Ce     0.4117   0.2129   0.7756
Ce510     Ce     0.4629   0.1617   0.7244
Ce511     Ce     0.5256   0.2871   0.6617
Ce512     Ce     0.4744   0.3383   0.7129
Ce513     Ce     0.5883   0.2871   0.7244
Ce514     Ce     0.5371   0.3383   0.7756
Ce515     Ce     0.4629   0.2244   0.6617
Ce516     Ce     0.4117   0.2756   0.7129
Ce517     Ce     0.6617   0.9629   0.7244
Ce518     Ce     0.7129   0.9117   0.7756
Ce519     Ce     0.7129   0.9744   0.8383
Ce520     Ce     0.6617   0.0256   0.7871
Ce521     Ce     0.7756   0.0371   0.8383
Ce522     Ce     0.7244   0.0883   0.7871
Ce523     Ce     0.7244   0.9629   0.6617
Ce524     Ce     0.7756   0.9117   0.7129
Ce525     Ce     0.8383   0.9744   0.7129
Ce526     Ce     0.7871   0.0256   0.6617
Ce527     Ce     0.8383   0.0371   0.7756
Ce528     Ce     0.7871   0.0883   0.7244
V529     V     0.062   0.9227   0.7646
V530     V     0.062   0.9854   0.8273
Er531     Er     0.0915   0.0042   0.7458
V532     V     0.2646   0.3273   0.688
V533     V     0.3273   0.2646   0.6879
Er534     Er     0.2458   0.2458   0.6585
V535     V     0.062   0.2646   0.4227
V536     V     0.062   0.3273   0.4854
Er537     Er     0.0915   0.2458   0.5042
V538     V     0.9854   0.062   0.8273
V539     V     0.9227   0.062   0.7646
Er540     Er     0.0042   0.0915   0.7458
V541     V     0.2646   0.9227   0.562
V542     V     0.3273   0.9854   0.562
Er543     Er     0.2458   0.0042   0.5915
V544     V     0.2646   0.188   0.8273
V545     V     0.3273   0.1879   0.7646
Er546     Er     0.2458   0.1585   0.7458
V547     V     0.188   0.2646   0.8273
V548     V     0.188   0.3273   0.7646
Er549     Er     0.1585   0.2458   0.7458
V550     V     0.9227   0.2646   0.5621
V551     V     0.9854   0.3273   0.5621
Er552     Er     0.0042   0.2458   0.5915
V553     V     0.9227   0.188   0.4854
V554     V     0.9854   0.188   0.4227
Er555     Er     0.0042   0.1585   0.5042
V556     V     0.9227   0.9854   0.688
V557     V     0.9854   0.9227   0.688
Er558     Er     0.0042   0.0042   0.6585
V559     V     0.188   0.9227   0.4854
V560     V     0.188   0.9854   0.4227
Er561     Er     0.1585   0.0042   0.5042
V562     V     0.2646   0.062   0.4227
V563     V     0.3273   0.062   0.4854
Er564     Er     0.2458   0.0915   0.5042
Ti565     Ti     0.1877   0.125   0.5623
Ti566     Ti     0.1877   0.125   0.6877
Ti567     Ti     0.0623   0.125   0.6877
Ti568     Ti     0.125   0.0623   0.6877
Ti569     Ti     0.1877   0.1877   0.625
Ti570     Ti     0.125   0.1877   0.6877
Ti571     Ti     0.125   0.0623   0.5623
Ti572     Ti     0.0623   0.125   0.5623
Ti573     Ti     0.125   0.1877   0.5623
Ti574     Ti     0.1877   0.0623   0.625
Ti575     Ti     0.0623   0.0623   0.625
Ti576     Ti     0.0623   0.1877   0.625
loop_
_geom_bond_atom_site_label_1
_geom_bond_atom_site_label_2
_geom_bond_distance
_geom_bond_site_symmetry_2
_ccdc_geom_bond_type
Ce1     Ce2    9.999   1_556     S
Ce1     Ce5    10.0   1_546     S
Ce1     Ce3    10.0   .     S
Ce1     V49    10.001   .     S
Ce2     Ce1    9.999   1_554     S
Ce2     Ce6    10.0   .     S
Ce2     Ce4    10.0   1_654     S
Ce2     V475    10.001   .     S
Ce3     Ce4    9.999   1_655     S
Ce3     Ce11    10.0   1_645     S
Ce3     V538    10.001   .     S
Ce4     Ce3    9.999   1_455     S
Ce4     Ce2    10.0   1_456     S
Ce4     Ce12    10.0   .     S
Ce4     V457    10.001   .     S
Ce5     Ce1    10.0   1_564     S
Ce5     Ce6    9.999   1_565     S
Ce5     Ce7    10.0   .     S
Ce5     V61    10.001   .     S
Ce6     Ce5    9.999   1_545     S
Ce6     Ce8    10.0   1_645     S
Ce6     V407    10.001   .     S
Ce7     Ce8    9.999   1_655     S
Ce7     Ce9    10.0   1_654     S
Ce7     V100    10.001   .     S
Ce8     Ce7    9.999   1_455     S
Ce8     Ce6    10.0   1_465     S
Ce8     Ce10    10.0   .     S
Ce8     V400    10.001   .     S
Ce9     Ce10    9.999   1_556     S
Ce9     Ce7    10.0   1_456     S
Ce9     Ce11    10.0   .     S
Ce9     V97    10.001   .     S
Ce10     Ce9    9.999   1_554     S
Ce10     Ce12    10.0   1_564     S
Ce10     V337    10.001   .     S
Ce11     Ce12    9.999   1_565     S
Ce11     Ce3    10.0   1_465     S
Ce11     V530    10.001   .     S
Ce12     Ce11    9.999   1_545     S
Ce12     Ce10    10.0   1_546     S
Ce12     V346    10.001   .     S
Ce13     Ce14    9.999   .     S
Ce13     Ce15    10.0   .     S
Ce13     Ce19    10.0   .     S
Ce13     V544    10.001   .     S
Ce14     Ce20    10.0   .     S
Ce14     Ce16    10.0   1_556     S
Ce14     V347    10.001   .     S
Ce15     Ce16    9.999   1_556     S
Ce15     Ce21    10.0   1_556     S
Ce15     V68    10.001   .     S
Ce16     Ce15    9.999   1_554     S
Ce16     Ce14    10.0   1_554     S
Ce16     Ce22    10.0   .     S
Ce16     V326    10.001   .     S
Ce17     Ce18    9.999   1_556     S
Ce17     Ce19    10.0   .     S
Ce17     Ce24    10.0   1_556     S
Ce17     V128    10.001   .     S
Ce18     Ce17    9.999   1_554     S
Ce18     Ce20    10.0   1_554     S
Ce18     Ce23    10.0   .     S
Ce18     V469    10.001   .     S
Ce19     Ce20    9.999   .     S
Ce19     V547    10.001   .     S
Ce20     Ce18    10.0   1_556     S
Ce20     V458    10.001   .     S
Ce21     Ce15    10.0   1_554     S
Ce21     Ce22    9.999   .     S
Ce21     Ce24    10.0   .     S
Ce21     V79    10.001   .     S
Ce22     Ce23    10.0   .     S
Ce22     V235    10.001   .     S
Ce23     Ce24    9.999   .     S
Ce23     V253    10.001   .     S
Ce24     Ce17    10.0   1_554     S
Ce24     V106    10.001   .     S
Ce25     Ce26    9.999   1_565     S
Ce25     Ce29    10.0   1_565     S
Ce25     Ce27    10.0   .     S
Ce25     V71    10.001   .     S
Ce26     Ce25    9.999   1_545     S
Ce26     Ce28    10.0   1_545     S
Ce26     Ce30    10.0   .     S
Ce26     V325    10.001   .     S
Ce27     Ce28    9.999   .     S
Ce27     Ce35    10.0   .     S
Ce27     V112    10.001   .     S
Ce28     Ce26    10.0   1_565     S
Ce28     Ce36    10.0   .     S
Ce28     V338    10.001   .     S
Ce29     Ce25    10.0   1_545     S
Ce29     Ce30    9.999   .     S
Ce29     Ce31    10.0   .     S
Ce29     V77    10.001   .     S
Ce30     Ce32    10.0   .     S
Ce30     V236    10.001   .     S
Ce31     Ce32    9.999   .     S
Ce31     Ce33    10.0   1_545     S
Ce31     V562    10.001   .     S
Ce32     Ce34    10.0   .     S
Ce32     V257    10.001   .     S
Ce33     Ce34    9.999   1_565     S
Ce33     Ce35    10.0   .     S
Ce33     Ce31    10.0   1_565     S
Ce33     V560    10.001   .     S
Ce34     Ce33    9.999   1_545     S
Ce34     Ce36    10.0   1_545     S
Ce34     V392    10.001   .     S
Ce35     Ce36    9.999   .     S
Ce35     V109    10.001   .     S
Ce36     Ce34    10.0   1_565     S
Ce36     V401    10.001   .     S
Ce37     Ce38    9.999   1_655     S
Ce37     Ce39    10.0   .     S
Ce37     Ce41    10.0   1_655     S
Ce37     V131    10.001   .     S
Ce38     Ce37    9.999   1_455     S
Ce38     Ce40    10.0   1_455     S
Ce38     Ce42    10.0   .     S
Ce38     V470    10.001   .     S
Ce39     Ce40    9.999   .     S
Ce39     Ce47    10.0   .     S
Ce39     V64    10.001   .     S
Ce40     Ce38    10.0   1_655     S
Ce40     Ce48    10.0   .     S
Ce40     V476    10.001   .     S
Ce41     Ce42    9.999   .     S
Ce41     Ce44    10.0   .     S
Ce41     Ce37    10.0   1_455     S
Ce41     V103    10.001   .     S
Ce42     Ce43    10.0   .     S
Ce42     V254    10.001   .     S
Ce43     Ce44    9.999   .     S
Ce43     Ce46    10.0   .     S
Ce43     V256    10.001   .     S
Ce44     Ce45    10.0   1_455     S
Ce44     V535    10.001   .     S
Ce45     Ce46    9.999   1_655     S
Ce45     Ce44    10.0   1_655     S
Ce45     Ce47    10.0   .     S
Ce45     V554    10.001   .     S
Ce46     Ce45    9.999   1_455     S
Ce46     Ce48    10.0   1_455     S
Ce46     V391    10.001   .     S
Ce47     Ce48    9.999   .     S
Ce47     V58    10.001   .     S
Ce48     Ce46    10.0   1_655     S
Ce48     V406    10.001   .     S
V49     Er51    10.0   1_556     S
V49     V50    10.0   .     S
V50     Er51    10.0   1_556     S
V50     Ce521    10.001   .     S
Er51     V49    10.0   1_554     S
Er51     V50    10.0   1_554     S
Er51     Ti87    10.0   .     S
V52     Er54    10.0   .     S
V52     V53    10.0   .     S
V52     Ce366    10.001   .     S
V53     Er54    10.0   .     S
V53     Ce218    10.001   .     S
Er54     Ti91    10.0   .     S
V55     Er57    10.0   1_556     S
V55     V56    10.0   .     S
V55     Ce506    10.001   .     S
V56     Er57    10.0   1_556     S
V56     Ce450    10.001   .     S
Er57     V56    10.0   1_554     S
Er57     V55    10.0   1_554     S
Er57     Ti92    10.0   .     S
V58     Er60    10.0   .     S
V58     V59    10.0   .     S
V59     Er60    10.0   .     S
V59     Ce222    10.001   .     S
Er60     Ti86    10.0   .     S
V61     Er63    10.0   1_565     S
V61     V62    10.0   .     S
V62     Er63    10.0   1_565     S
V62     Ce435    10.001   .     S
Er63     V61    10.0   1_545     S
Er63     V62    10.0   1_545     S
Er63     Ti89    10.0   .     S
V64     Er66    10.0   .     S
V64     V65    10.0   .     S
V65     Er66    10.0   .     S
V65     Ce361    10.001   .     S
Er66     Ti88    10.0   .     S
V67     Er69    10.0   1_556     S
V67     V68    10.0   .     S
V67     Ce507    10.001   .     S
V68     Er69    10.0   1_556     S
Er69     V67    10.0   1_554     S
Er69     V68    10.0   1_554     S
Er69     Ti84    10.0   .     S
V70     Er72    10.0   1_565     S
V70     V71    10.0   .     S
V70     Ce211    10.001   .     S
V71     Er72    10.0   1_565     S
Er72     V71    10.0   1_545     S
Er72     V70    10.0   1_545     S
Er72     Ti85    10.0   .     S
V73     Er75    10.0   1_566     S
V73     V74    10.0   .     S
V73     Ce519    10.001   .     S
V74     Er75    10.0   1_566     S
V74     Ce438    10.001   .     S
Er75     V73    10.0   1_544     S
Er75     V74    10.0   1_544     S
Er75     Ti93    10.0   .     S
V76     Er78    10.0   .     S
V76     V77    10.0   .     S
V76     Ce303    10.001   .     S
V77     Er78    10.0   .     S
Er78     Ti82    10.0   .     S
V79     Er81    10.0   .     S
V79     V80    10.0   .     S
V80     Er81    10.0   .     S
V80     Ce453    10.001   .     S
Er81     Ti83    10.0   .     S
Ti82     Ti83    10.0   .     S
Ti82     Ti91    10.0   .     S
Ti82     Ti90    10.0   .     S
Ti82     Ti85    10.0   .     S
Ti83     Ti84    10.0   .     S
Ti83     Ti92    10.0   .     S
Ti83     Ti91    10.0   .     S
Ti84     Ti85    10.0   .     S
Ti84     Ti93    10.0   .     S
Ti84     Ti92    10.0   .     S
Ti85     Ti93    10.0   .     S
Ti85     Ti90    10.0   .     S
Ti86     Ti90    10.0   .     S
Ti86     Ti89    10.0   .     S
Ti86     Ti91    10.0   .     S
Ti86     Ti88    10.0   .     S
Ti87     Ti92    10.0   .     S
Ti87     Ti88    10.0   .     S
Ti87     Ti93    10.0   .     S
Ti87     Ti89    10.0   .     S
Ti88     Ti91    10.0   .     S
Ti88     Ti92    10.0   .     S
Ti89     Ti90    10.0   .     S
Ti89     Ti93    10.0   .     S
Ti90     Er96    10.0   .     S
V94     Er96    10.0   1_565     S
V94     V95    10.0   .     S
V94     Ce215    10.001   .     S
V95     Er96    10.0   1_565     S
V95     Ce305    10.001   .     S
Er96     V94    10.0   1_545     S
Er96     V95    10.0   1_545     S
V97     Er99    10.0   1_556     S
V97     V98    10.0   .     S
V98     Er99    10.0   1_556     S
V98     Ce155    10.001   .     S
Er99     V97    10.0   1_554     S
Er99     V98    10.0   1_554     S
Er99     Ti140    10.0   .     S
V100     Er102    10.0   1_655     S
V100     V101    10.0   .     S
V101     Er102    10.0   1_655     S
V101     Ce439    10.001   .     S
Er102     V100    10.0   1_455     S
Er102     V101    10.0   1_455     S
Er102     Ti136    10.0   .     S
V103     Er105    10.0   .     S
V103     V104    10.0   .     S
V104     Er105    10.0   .     S
V104     Ce429    10.001   .     S
Er105     Ti133    10.0   .     S
V106     Er108    10.0   .     S
V106     V107    10.0   .     S
V107     Er108    10.0   .     S
V107     Ce456    10.001   .     S
Er108     Ti143    10.0   .     S
V109     Er111    10.0   .     S
V109     V110    10.0   .     S
V110     Er111    10.0   .     S
V110     Ce291    10.001   .     S
Er111     Ti139    10.0   .     S
V112     Er114    10.0   .     S
V112     V113    10.0   .     S
V113     Er114    10.0   .     S
V113     Ce210    10.001   .     S
Er114     Ti137    10.0   .     S
V115     Er117    10.0   .     S
V115     V116    10.0   .     S
V115     Ce207    10.001   .     S
V116     Er117    10.0   .     S
V116     Ce290    10.001   .     S
Er117     Ti138    10.0   .     S
V118     Er120    10.0   1_556     S
V118     V119    10.0   .     S
V118     Ce281    10.001   .     S
V119     Er120    10.0   1_556     S
V119     Ce445    10.001   .     S
Er120     V118    10.0   1_554     S
Er120     V119    10.0   1_554     S
Er120     Ti142    10.0   .     S
V121     Er123    10.0   1_655     S
V121     V122    10.0   .     S
V121     Ce370    10.001   .     S
V122     Er123    10.0   1_655     S
V122     Ce422    10.001   .     S
Er123     V122    10.0   1_455     S
Er123     V121    10.0   1_455     S
Er123     Ti144    10.0   .     S
V124     Er126    10.0   1_656     S
V124     V125    10.0   .     S
V124     Ce153    10.001   .     S
V125     Er126    10.0   1_656     S
V125     Ce444    10.001   .     S
Er126     V124    10.0   1_454     S
Er126     V125    10.0   1_454     S
Er126     Ti141    10.0   .     S
V127     Er129    10.0   1_556     S
V127     V128    10.0   .     S
V127     Ce277    10.001   .     S
V128     Er129    10.0   1_556     S
Er129     V128    10.0   1_554     S
Er129     V127    10.0   1_554     S
Er129     Ti134    10.0   .     S
V130     Er132    10.0   1_655     S
V130     V131    10.0   .     S
V130     Ce363    10.001   .     S
V131     Er132    10.0   1_655     S
Er132     V130    10.0   1_455     S
Er132     V131    10.0   1_455     S
Er132     Ti135    10.0   .     S
Ti133     Ti144    10.0   .     S
Ti133     Ti135    10.0   .     S
Ti133     Ti138    10.0   .     S
Ti133     Ti143    10.0   .     S
Ti134     Ti135    10.0   .     S
Ti134     Ti141    10.0   .     S
Ti134     Ti142    10.0   .     S
Ti134     Ti143    10.0   .     S
Ti135     Ti144    10.0   .     S
Ti135     Ti141    10.0   .     S
Ti136     Ti141    10.0   .     S
Ti136     Ti140    10.0   .     S
Ti136     Ti144    10.0   .     S
Ti136     Ti139    10.0   .     S
Ti137     Ti142    10.0   .     S
Ti137     Ti140    10.0   .     S
Ti137     Ti138    10.0   .     S
Ti137     Ti139    10.0   .     S
Ti138     Ti143    10.0   .     S
Ti138     Ti139    10.0   .     S
Ti139     Ti144    10.0   .     S
Ti140     Ti141    10.0   .     S
Ti140     Ti142    10.0   .     S
Ti142     Ti143    10.0   .     S
Ce145     Ce146    9.999   .     S
Ce145     Ce148    10.0   1_655     S
Ce145     Ce152    10.0   .     S
Ce145     V376    10.001   .     S
Ce146     Ce151    10.0   .     S
Ce146     Ce147    10.0   .     S
Ce146     V160    10.001   .     S
Ce147     Ce148    9.999   1_655     S
Ce147     Ce149    10.0   1_655     S
Ce147     V557    10.001   .     S
Ce148     Ce147    9.999   1_455     S
Ce148     Ce145    10.0   1_455     S
Ce148     Ce150    10.0   .     S
Ce148     V388    10.001   .     S
Ce149     Ce150    9.999   .     S
Ce149     Ce147    10.0   1_455     S
Ce149     Ce155    10.0   .     S
Ce149     V529    10.001   .     S
Ce150     Ce156    10.0   .     S
Ce150     V340    10.001   .     S
Ce151     Ce152    9.999   .     S
Ce151     Ce153    10.0   .     S
Ce151     V158    10.001   .     S
Ce152     Ce154    10.0   1_655     S
Ce152     V464    10.001   .     S
Ce153     Ce154    9.999   1_655     S
Ce153     Ce155    10.0   1_655     S
Ce154     Ce153    9.999   1_455     S
Ce154     Ce152    10.0   1_455     S
Ce154     Ce156    10.0   .     S
Ce154     V490    10.001   .     S
Ce155     Ce156    9.999   .     S
Ce155     Ce153    10.0   1_455     S
Ce156     V344    10.001   .     S
V157     Er159    10.0   .     S
V157     V158    10.0   .     S
V157     Ce442    10.001   .     S
V158     Er159    10.0   .     S
Er159     Ti194    10.0   .     S
V160     Er162    10.0   .     S
V160     V161    10.0   .     S
V161     Er162    10.0   .     S
V161     Ce524    10.001   .     S
Er162     Ti195    10.0   .     S
V163     Er165    10.0   .     S
V163     V164    10.0   .     S
V163     Ce518    10.001   .     S
V164     Er165    10.0   .     S
V164     Ce434    10.001   .     S
Er165     Ti193    10.0   .     S
V166     Er168    10.0   .     S
V166     V167    10.0   .     S
V166     Ce447    10.001   .     S
V167     Er168    10.0   .     S
V167     Ce279    10.001   .     S
Er168     Ti201    10.0   .     S
V169     Er171    10.0   .     S
V169     V170    10.0   .     S
V169     Ce452    10.001   .     S
V170     Er171    10.0   .     S
V170     Ce514    10.001   .     S
Er171     Ti197    10.0   .     S
V172     Er174    10.0   .     S
V172     V173    10.0   .     S
V172     Ce312    10.001   .     S
V173     Er174    10.0   .     S
V173     Ce296    10.001   .     S
Er174     Ti203    10.0   .     S
V175     Er177    10.0   .     S
V175     V176    10.0   .     S
V175     Ce309    10.001   .     S
V176     Er177    10.0   .     S
V176     Ce213    10.001   .     S
Er177     Ti204    10.0   .     S
V178     Er180    10.0   .     S
V178     V179    10.0   .     S
V178     Ce423    10.001   .     S
V179     Er180    10.0   .     S
V179     Ce372    10.001   .     S
Er180     Ti198    10.0   .     S
V181     Er183    10.0   .     S
V181     V182    10.0   .     S
V181     Ce427    10.001   .     S
V182     Er183    10.0   .     S
V182     Ce226    10.001   .     S
Er183     Ti196    10.0   .     S
V184     Er186    10.0   .     S
V184     V185    10.0   .     S
V184     Ce206    10.001   .     S
V185     Er186    10.0   .     S
V185     Ce300    10.001   .     S
Er186     Ti202    10.0   .     S
V187     Er189    10.0   .     S
V187     V188    10.0   .     S
V187     Ce220    10.001   .     S
V188     Er189    10.0   .     S
V188     Ce368    10.001   .     S
Er189     Ti199    10.0   .     S
V190     Er192    10.0   .     S
V190     V191    10.0   .     S
V190     Ce288    10.001   .     S
V191     Er192    10.0   .     S
V191     Ce512    10.001   .     S
Er192     Ti200    10.0   .     S
Ti193     Ti203    10.0   .     S
Ti193     Ti201    10.0   .     S
Ti193     Ti194    10.0   .     S
Ti193     Ti195    10.0   .     S
Ti194     Ti197    10.0   .     S
Ti194     Ti196    10.0   .     S
Ti194     Ti195    10.0   .     S
Ti195     Ti204    10.0   .     S
Ti195     Ti198    10.0   .     S
Ti196     Ti199    10.0   .     S
Ti196     Ti198    10.0   .     S
Ti196     Ti197    10.0   .     S
Ti197     Ti200    10.0   .     S
Ti197     Ti201    10.0   .     S
Ti198     Ti204    10.0   .     S
Ti198     Ti199    10.0   .     S
Ti199     Ti200    10.0   .     S
Ti199     Ti202    10.0   .     S
Ti200     Ti202    10.0   .     S
Ti200     Ti201    10.0   .     S
Ti201     Ti203    10.0   .     S
Ti202     Ti203    10.0   .     S
Ti202     Ti204    10.0   .     S
Ti203     Ti204    10.0   .     S
Ce205     Ce206    9.999   .     S
Ce205     Ce208    10.0   .     S
Ce205     Ce214    10.0   .     S
Ce205     V229    10.001   .     S
Ce206     Ce207    10.0   .     S
Ce206     Ce213    10.0   .     S
Ce207     Ce208    9.999   .     S
Ce207     Ce210    10.0   .     S
Ce208     Ce209    10.0   .     S
Ce208     V259    10.001   .     S
Ce209     Ce210    9.999   .     S
Ce209     Ce212    10.0   .     S
Ce209     V335    10.001   .     S
Ce210     Ce211    10.0   .     S
Ce211     Ce212    9.999   .     S
Ce211     Ce215    10.0   .     S
Ce212     Ce216    10.0   .     S
Ce212     V317    10.001   .     S
Ce213     Ce214    9.999   .     S
Ce213     Ce215    10.0   .     S
Ce214     Ce216    10.0   .     S
Ce214     V380    10.001   .     S
Ce215     Ce216    9.999   .     S
Ce216     V394    10.001   .     S
Ce217     Ce218    9.999   .     S
Ce217     Ce219    10.0   .     S
Ce217     Ce221    10.0   .     S
Ce217     V241    10.001   .     S
Ce218     Ce220    10.0   .     S
Ce218     Ce222    10.0   .     S
Ce219     Ce220    9.999   .     S
Ce219     Ce225    10.0   .     S
Ce219     V262    10.001   .     S
Ce220     Ce226    10.0   .     S
Ce221     Ce222    9.999   .     S
Ce221     Ce224    10.0   .     S
Ce221     V382    10.001   .     S
Ce222     Ce223    10.0   .     S
Ce223     Ce224    9.999   .     S
Ce223     Ce227    10.0   .     S
Ce223     V553    10.001   .     S
Ce224     Ce228    10.0   .     S
Ce224     V404    10.001   .     S
Ce225     Ce226    9.999   .     S
Ce225     Ce228    10.0   .     S
Ce225     V467    10.001   .     S
Ce226     Ce227    10.0   .     S
Ce227     Ce228    9.999   .     S
Ce227     V550    10.001   .     S
Ce228     V478    10.001   .     S
V229     Er231    10.0   .     S
V229     V230    10.0   .     S
V230     Er231    10.0   .     S
V230     Ce367    10.001   .     S
Er231     Ti274    10.0   .     S
V232     Er234    10.0   .     S
V232     V233    10.0   .     S
V232     Ce287    10.001   .     S
V233     Er234    10.0   .     S
V233     Ce299    10.001   .     S
Er234     Ti266    10.0   .     S
V235     Er237    10.0   .     S
V235     V236    10.0   .     S
V236     Er237    10.0   .     S
Er237     Ti275    10.0   .     S
V238     Er240    10.0   .     S
V238     V239    10.0   .     S
V238     Ce302    10.001   .     S
V239     Er240    10.0   .     S
V239     Ce515    10.001   .     S
Er240     Ti269    10.0   .     S
V241     Er243    10.0   .     S
V241     V242    10.0   .     S
V242     Er243    10.0   .     S
V242     Ce304    10.001   .     S
Er243     Ti273    10.0   .     S
V244     Er246    10.0   .     S
V244     V245    10.0   .     S
V244     Ce365    10.001   .     S
V245     Er246    10.0   .     S
V245     Ce454    10.001   .     S
Er246     Ti265    10.0   .     S
V247     Er249    10.0   .     S
V247     V248    10.0   .     S
V247     Ce431    10.001   .     S
V248     Er249    10.0   .     S
V248     Ce286    10.001   .     S
Er249     Ti267    10.0   .     S
V250     Er252    10.0   .     S
V250     V251    10.0   .     S
V250     Ce430    10.001   .     S
V251     Er252    10.0   .     S
V251     Ce289    10.001   .     S
Er252     Ti268    10.0   .     S
V253     Er255    10.0   .     S
V253     V254    10.0   .     S
V254     Er255    10.0   .     S
Er255     Ti271    10.0   .     S
V256     Er258    10.0   .     S
V256     V257    10.0   .     S
V257     Er258    10.0   .     S
Er258     Ti270    10.0   .     S
V259     Er261    10.0   .     S
V259     V260    10.0   .     S
V260     Er261    10.0   .     S
V260     Ce455    10.001   .     S
Er261     Ti276    10.0   .     S
V262     Er264    10.0   .     S
V262     V263    10.0   .     S
V263     Er264    10.0   .     S
V263     Ce511    10.001   .     S
Er264     Ti272    10.0   .     S
Ti265     Ti273    10.0   .     S
Ti265     Ti275    10.0   .     S
Ti265     Ti274    10.0   .     S
Ti265     Ti276    10.0   .     S
Ti266     Ti274    10.0   .     S
Ti266     Ti272    10.0   .     S
Ti266     Ti268    10.0   .     S
Ti266     Ti267    10.0   .     S
Ti267     Ti270    10.0   .     S
Ti267     Ti269    10.0   .     S
Ti267     Ti268    10.0   .     S
Ti268     Ti276    10.0   .     S
Ti268     Ti271    10.0   .     S
Ti269     Ti272    10.0   .     S
Ti269     Ti273    10.0   .     S
Ti269     Ti270    10.0   .     S
Ti270     Ti275    10.0   .     S
Ti270     Ti271    10.0   .     S
Ti271     Ti276    10.0   .     S
Ti271     Ti275    10.0   .     S
Ti272     Ti274    10.0   .     S
Ti272     Ti273    10.0   .     S
Ti273     Ti275    10.0   .     S
Ti274     Ti276    10.0   .     S
Ce277     Ce278    9.999   .     S
Ce277     Ce281    10.0   .     S
Ce277     Ce283    10.0   .     S
Ce278     Ce284    10.0   .     S
Ce278     Ce282    10.0   .     S
Ce278     V491    10.001   .     S
Ce279     Ce280    9.999   .     S
Ce279     Ce281    10.0   .     S
Ce279     Ce288    10.0   .     S
Ce280     Ce287    10.0   .     S
Ce280     Ce282    10.0   .     S
Ce280     V323    10.001   .     S
Ce281     Ce282    9.999   .     S
Ce282     V343    10.001   .     S
Ce283     Ce284    9.999   .     S
Ce283     Ce285    10.0   .     S
Ce283     V548    10.001   .     S
Ce284     Ce286    10.0   .     S
Ce284     V461    10.001   .     S
Ce285     Ce286    9.999   .     S
Ce285     Ce288    10.0   .     S
Ce285     V532    10.001   .     S
Ce286     Ce287    10.0   .     S
Ce287     Ce288    9.999   .     S
Ce289     Ce290    9.999   .     S
Ce289     Ce292    10.0   .     S
Ce289     Ce299    10.0   .     S
Ce290     Ce300    10.0   .     S
Ce290     Ce291    10.0   .     S
Ce291     Ce292    9.999   .     S
Ce291     Ce293    10.0   .     S
Ce292     Ce294    10.0   .     S
Ce292     V374    10.001   .     S
Ce293     Ce294    9.999   .     S
Ce293     Ce298    10.0   .     S
Ce293     V559    10.001   .     S
Ce294     Ce297    10.0   .     S
Ce294     V389    10.001   .     S
Ce295     Ce296    9.999   .     S
Ce295     Ce297    10.0   .     S
Ce295     Ce299    10.0   .     S
Ce295     V322    10.001   .     S
Ce296     Ce300    10.0   .     S
Ce296     Ce298    10.0   .     S
Ce297     Ce298    9.999   .     S
Ce297     V341    10.001   .     S
Ce298     V541    10.001   .     S
Ce299     Ce300    9.999   .     S
Ce301     Ce302    9.999   .     S
Ce301     Ce308    10.0   1_545     S
Ce301     Ce303    10.0   .     S
Ce301     V563    10.001   .     S
Ce302     Ce307    10.0   .     S
Ce302     Ce304    10.0   .     S
Ce303     Ce304    9.999   .     S
Ce303     Ce305    10.0   1_545     S
Ce304     Ce306    10.0   .     S
Ce305     Ce303    10.0   1_565     S
Ce305     Ce306    9.999   1_565     S
Ce305     Ce309    10.0   .     S
Ce306     Ce305    9.999   1_545     S
Ce306     Ce310    10.0   1_545     S
Ce306     V383    10.001   .     S
Ce307     Ce308    9.999   1_545     S
Ce307     Ce311    10.0   1_545     S
Ce307     V328    10.001   .     S
Ce308     Ce301    10.0   1_565     S
Ce308     Ce307    9.999   1_565     S
Ce308     Ce312    10.0   .     S
Ce308     V542    10.001   .     S
Ce309     Ce310    9.999   .     S
Ce309     Ce312    10.0   .     S
Ce310     Ce306    10.0   1_565     S
Ce310     Ce311    10.0   .     S
Ce310     V385    10.001   .     S
Ce311     Ce312    9.999   .     S
Ce311     Ce307    10.0   1_565     S
Ce311     V314    10.001   .     S
V313     Er315    10.0   .     S
V313     V314    10.0   .     S
V313     Ce517    10.001   .     S
V314     Er315    10.0   .     S
Er315     Ti351    10.0   .     S
V316     Er318    10.0   1_554     S
V316     V317    10.0   .     S
V316     Ce437    10.001   .     S
V317     Er318    10.0   1_554     S
Er318     V316    10.0   1_556     S
Er318     V317    10.0   1_556     S
Er318     Ti356    10.0   .     S
V319     Er321    10.0   .     S
V319     V320    10.0   .     S
V319     Ce448    10.001   .     S
V320     Er321    10.0   .     S
V320     Ce433    10.001   .     S
Er321     Ti355    10.0   .     S
V322     Er324    10.0   .     S
V322     V323    10.0   .     S
V323     Er324    10.0   .     S
Er324     Ti349    10.0   .     S
V325     Er327    10.0   1_544     S
V325     V326    10.0   .     S
V326     Er327    10.0   1_544     S
Er327     V325    10.0   1_566     S
Er327     V326    10.0   1_566     S
Er327     Ti352    10.0   .     S
V328     Er330    10.0   1_545     S
V328     V329    10.0   .     S
V329     Er330    10.0   1_545     S
V329     Ce510    10.001   .     S
Er330     V328    10.0   1_565     S
Er330     V329    10.0   1_565     S
Er330     Ti350    10.0   .     S
V331     Er333    10.0   1_545     S
V331     V332    10.0   .     S
V331     Ce520    10.001   .     S
V332     Er333    10.0   1_545     S
V332     Ce508    10.001   .     S
Er333     V332    10.0   1_565     S
Er333     V331    10.0   1_565     S
Er333     Ti359    10.0   .     S
V334     Er336    10.0   1_554     S
V334     V335    10.0   .     S
V334     Ce446    10.001   .     S
V335     Er336    10.0   1_554     S
Er336     V335    10.0   1_556     S
Er336     V334    10.0   1_556     S
Er336     Ti354    10.0   .     S
V337     Er339    10.0   1_554     S
V337     V338    10.0   .     S
V338     Er339    10.0   1_554     S
Er339     V337    10.0   1_556     S
Er339     V338    10.0   1_556     S
Er339     Ti357    10.0   .     S
V340     Er342    10.0   .     S
V340     V341    10.0   .     S
V341     Er342    10.0   .     S
Er342     Ti360    10.0   .     S
V343     Er345    10.0   .     S
V343     V344    10.0   .     S
V344     Er345    10.0   .     S
Er345     Ti358    10.0   .     S
V346     Er348    10.0   1_545     S
V346     V347    10.0   .     S
V347     Er348    10.0   1_545     S
Er348     V346    10.0   1_565     S
Er348     V347    10.0   1_565     S
Er348     Ti353    10.0   .     S
Ti349     Ti355    10.0   .     S
Ti349     Ti351    10.0   .     S
Ti349     Ti360    10.0   .     S
Ti349     Ti358    10.0   .     S
Ti350     Ti360    10.0   .     S
Ti350     Ti353    10.0   .     S
Ti350     Ti351    10.0   .     S
Ti350     Ti359    10.0   .     S
Ti351     Ti355    10.0   .     S
Ti351     Ti359    10.0   .     S
Ti352     Ti356    10.0   .     S
Ti352     Ti359    10.0   .     S
Ti352     Ti357    10.0   .     S
Ti352     Ti353    10.0   .     S
Ti353     Ti360    10.0   .     S
Ti353     Ti357    10.0   .     S
Ti354     Ti357    10.0   .     S
Ti354     Ti358    10.0   .     S
Ti354     Ti355    10.0   .     S
Ti354     Ti356    10.0   .     S
Ti355     Ti356    10.0   .     S
Ti356     Ti359    10.0   .     S
Ti357     Ti358    10.0   .     S
Ti358     Ti360    10.0   .     S
Ce361     Ce362    9.999   .     S
Ce361     Ce363    10.0   .     S
Ce361     Ce366    10.0   .     S
Ce362     Ce365    10.0   .     S
Ce362     Ce364    10.0   .     S
Ce362     V473    10.001   .     S
Ce363     Ce364    9.999   .     S
Ce363     Ce370    10.0   .     S
Ce364     Ce369    10.0   .     S
Ce364     V487    10.001   .     S
Ce365     Ce366    9.999   .     S
Ce365     Ce367    10.0   .     S
Ce366     Ce368    10.0   .     S
Ce367     Ce368    9.999   .     S
Ce367     Ce371    10.0   .     S
Ce368     Ce372    10.0   .     S
Ce369     Ce370    9.999   .     S
Ce369     Ce371    10.0   .     S
Ce369     V398    10.001   .     S
Ce370     Ce372    10.0   .     S
Ce371     Ce372    9.999   .     S
Ce371     V379    10.001   .     S
V373     Er375    10.0   1_455     S
V373     V374    10.0   .     S
V373     Ce421    10.001   .     S
V374     Er375    10.0   1_455     S
Er375     V374    10.0   1_655     S
Er375     V373    10.0   1_655     S
Er375     Ti411    10.0   .     S
V376     Er378    10.0   .     S
V376     V377    10.0   .     S
V377     Er378    10.0   .     S
V377     Ce424    10.001   .     S
Er378     Ti420    10.0   .     S
V379     Er381    10.0   .     S
V379     V380    10.0   .     S
V380     Er381    10.0   .     S
Er381     Ti409    10.0   .     S
V382     Er384    10.0   1_545     S
V382     V383    10.0   .     S
V383     Er384    10.0   1_545     S
Er384     V382    10.0   1_565     S
Er384     V383    10.0   1_565     S
Er384     Ti412    10.0   .     S
V385     Er387    10.0   .     S
V385     V386    10.0   .     S
V386     Er387    10.0   .     S
V386     Ce523    10.001   .     S
Er387     Ti417    10.0   .     S
V388     Er390    10.0   1_455     S
V388     V389    10.0   .     S
V389     Er390    10.0   1_455     S
Er390     V389    10.0   1_655     S
Er390     V388    10.0   1_655     S
Er390     Ti415    10.0   .     S
V391     Er393    10.0   1_445     S
V391     V392    10.0   .     S
V392     Er393    10.0   1_445     S
Er393     V391    10.0   1_665     S
Er393     V392    10.0   1_665     S
Er393     Ti413    10.0   .     S
V394     Er396    10.0   .     S
V394     V395    10.0   .     S
V395     Er396    10.0   .     S
V395     Ce436    10.001   .     S
Er396     Ti418    10.0   .     S
V397     Er399    10.0   .     S
V397     V398    10.0   .     S
V397     Ce440    10.001   .     S
V398     Er399    10.0   .     S
Er399     Ti419    10.0   .     S
V400     Er402    10.0   1_455     S
V400     V401    10.0   .     S
V401     Er402    10.0   1_455     S
Er402     V400    10.0   1_655     S
Er402     V401    10.0   1_655     S
Er402     Ti410    10.0   .     S
V403     Er405    10.0   1_545     S
V403     V404    10.0   .     S
V403     Ce526    10.001   .     S
V404     Er405    10.0   1_545     S
Er405     V403    10.0   1_565     S
Er405     V404    10.0   1_565     S
Er405     Ti414    10.0   .     S
V406     Er408    10.0   1_545     S
V406     V407    10.0   .     S
V407     Er408    10.0   1_545     S
Er408     V407    10.0   1_565     S
Er408     V406    10.0   1_565     S
Er408     Ti416    10.0   .     S
Ti409     Ti420    10.0   .     S
Ti409     Ti417    10.0   .     S
Ti409     Ti419    10.0   .     S
Ti409     Ti418    10.0   .     S
Ti410     Ti419    10.0   .     S
Ti410     Ti411    10.0   .     S
Ti410     Ti416    10.0   .     S
Ti410     Ti413    10.0   .     S
Ti411     Ti420    10.0   .     S
Ti411     Ti415    10.0   .     S
Ti411     Ti419    10.0   .     S
Ti412     Ti418    10.0   .     S
Ti412     Ti416    10.0   .     S
Ti412     Ti414    10.0   .     S
Ti412     Ti417    10.0   .     S
Ti413     Ti416    10.0   .     S
Ti413     Ti414    10.0   .     S
Ti413     Ti415    10.0   .     S
Ti414     Ti417    10.0   .     S
Ti414     Ti415    10.0   .     S
Ti415     Ti420    10.0   .     S
Ti416     Ti418    10.0   .     S
Ti417     Ti420    10.0   .     S
Ti418     Ti419    10.0   .     S
Ce421     Ce422    9.999   1_455     S
Ce421     Ce424    10.0   1_455     S
Ce421     Ce430    10.0   .     S
Ce422     Ce421    9.999   1_655     S
Ce422     Ce429    10.0   1_655     S
Ce422     Ce423    10.0   .     S
Ce423     Ce424    9.999   .     S
Ce423     Ce427    10.0   .     S
Ce424     Ce421    10.0   1_655     S
Ce424     Ce428    10.0   .     S
Ce425     Ce426    9.999   1_655     S
Ce425     Ce432    10.0   1_655     S
Ce425     Ce427    10.0   .     S
Ce425     V551    10.001   .     S
Ce426     Ce425    9.999   1_455     S
Ce426     Ce428    10.0   1_455     S
Ce426     Ce431    10.0   .     S
Ce426     V460    10.001   .     S
Ce427     Ce428    9.999   .     S
Ce428     Ce426    10.0   1_655     S
Ce428     V463    10.001   .     S
Ce429     Ce422    10.0   1_455     S
Ce429     Ce430    9.999   .     S
Ce429     Ce432    10.0   .     S
Ce430     Ce431    10.0   .     S
Ce431     Ce432    9.999   .     S
Ce432     Ce425    10.0   1_455     S
Ce432     V536    10.001   .     S
Ce433     Ce434    9.999   .     S
Ce433     Ce441    10.0   .     S
Ce433     Ce437    10.0   1_556     S
Ce434     Ce438    10.0   .     S
Ce434     Ce442    10.0   .     S
Ce435     Ce436    9.999   .     S
Ce435     Ce439    10.0   .     S
Ce435     Ce438    10.0   1_554     S
Ce436     Ce437    10.0   .     S
Ce436     Ce440    10.0   .     S
Ce437     Ce438    9.999   1_554     S
Ce437     Ce433    10.0   1_554     S
Ce438     Ce437    9.999   1_556     S
Ce438     Ce435    10.0   1_556     S
Ce439     Ce440    9.999   .     S
Ce439     Ce444    10.0   1_554     S
Ce440     Ce443    10.0   .     S
Ce441     Ce442    9.999   .     S
Ce441     Ce443    10.0   1_556     S
Ce441     V484    10.001   .     S
Ce442     Ce444    10.0   .     S
Ce443     Ce444    9.999   1_554     S
Ce443     Ce441    10.0   1_554     S
Ce443     V488    10.001   .     S
Ce444     Ce439    10.0   1_556     S
Ce444     Ce443    9.999   1_556     S
Ce445     Ce446    9.999   1_556     S
Ce445     Ce456    10.0   1_556     S
Ce445     Ce447    10.0   .     S
Ce446     Ce445    9.999   1_554     S
Ce446     Ce448    10.0   1_554     S
Ce446     Ce455    10.0   .     S
Ce447     Ce448    9.999   .     S
Ce447     Ce452    10.0   .     S
Ce448     Ce446    10.0   1_556     S
Ce448     Ce451    10.0   .     S
Ce449     Ce450    9.999   1_554     S
Ce449     Ce451    10.0   1_554     S
Ce449     Ce454    10.0   .     S
Ce449     V472    10.001   .     S
Ce450     Ce449    9.999   1_556     S
Ce450     Ce453    10.0   1_556     S
Ce450     Ce452    10.0   .     S
Ce451     Ce452    9.999   .     S
Ce451     Ce449    10.0   1_556     S
Ce451     V485    10.001   .     S
Ce453     Ce450    10.0   1_554     S
Ce453     Ce454    9.999   .     S
Ce453     Ce456    10.0   .     S
Ce454     Ce455    10.0   .     S
Ce455     Ce456    9.999   .     S
Ce456     Ce445    10.0   1_554     S
V457     Er459    10.0   1_455     S
V457     V458    10.0   .     S
V458     Er459    10.0   1_455     S
Er459     V457    10.0   1_655     S
Er459     V458    10.0   1_655     S
Er459     Ti500    10.0   .     S
V460     Er462    10.0   1_455     S
V460     V461    10.0   .     S
V461     Er462    10.0   1_455     S
Er462     V460    10.0   1_655     S
Er462     V461    10.0   1_655     S
Er462     Ti496    10.0   .     S
V463     Er465    10.0   .     S
V463     V464    10.0   .     S
V464     Er465    10.0   .     S
Er465     Ti499    10.0   .     S
V466     Er468    10.0   .     S
V466     V467    10.0   .     S
V466     Ce513    10.001   .     S
V467     Er468    10.0   .     S
Er468     Ti495    10.0   .     S
V469     Er471    10.0   1_454     S
V469     V470    10.0   .     S
V470     Er471    10.0   1_454     S
Er471     V469    10.0   1_656     S
Er471     V470    10.0   1_656     S
Er471     Ti493    10.0   .     S
V472     Er474    10.0   1_554     S
V472     V473    10.0   .     S
V473     Er474    10.0   1_554     S
Er474     V473    10.0   1_556     S
Er474     V472    10.0   1_556     S
Er474     Ti494    10.0   .     S
V475     Er477    10.0   1_554     S
V475     V476    10.0   .     S
V476     Er477    10.0   1_554     S
Er477     V476    10.0   1_556     S
Er477     V475    10.0   1_556     S
Er477     Ti503    10.0   .     S
V478     Er480    10.0   .     S
V478     V479    10.0   .     S
V479     Er480    10.0   .     S
V479     Ce528    10.001   .     S
Er480     Ti497    10.0   .     S
V481     Er483    10.0   .     S
V481     V482    10.0   .     S
V481     Ce522    10.001   .     S
V482     Er483    10.0   .     S
V482     Ce505    10.001   .     S
Er483     Ti502    10.0   .     S
V484     Er486    10.0   .     S
V484     V485    10.0   .     S
V485     Er486    10.0   .     S
Er486     Ti501    10.0   .     S
V487     Er489    10.0   1_554     S
V487     V488    10.0   .     S
V488     Er489    10.0   1_554     S
Er489     V488    10.0   1_556     S
Er489     V487    10.0   1_556     S
Er489     Ti504    10.0   .     S
V490     Er492    10.0   1_455     S
V490     V491    10.0   .     S
V491     Er492    10.0   1_455     S
Er492     V490    10.0   1_655     S
Er492     V491    10.0   1_655     S
Er492     Ti498    10.0   .     S
Ti493     Ti504    10.0   .     S
Ti493     Ti498    10.0   .     S
Ti493     Ti503    10.0   .     S
Ti493     Ti500    10.0   .     S
Ti494     Ti502    10.0   .     S
Ti494     Ti503    10.0   .     S
Ti494     Ti501    10.0   .     S
Ti494     Ti504    10.0   .     S
Ti495     Ti499    10.0   .     S
Ti495     Ti501    10.0   .     S
Ti495     Ti497    10.0   .     S
Ti495     Ti502    10.0   .     S
Ti496     Ti497    10.0   .     S
Ti496     Ti500    10.0   .     S
Ti496     Ti498    10.0   .     S
Ti496     Ti499    10.0   .     S
Ti497     Ti502    10.0   .     S
Ti497     Ti500    10.0   .     S
Ti498     Ti504    10.0   .     S
Ti498     Ti499    10.0   .     S
Ti499     Ti501    10.0   .     S
Ti500     Ti503    10.0   .     S
Ti501     Ti504    10.0   .     S
Ti502     Ti503    10.0   .     S
Ce505     Ce506    9.999   .     S
Ce505     Ce513    10.0   .     S
Ce505     Ce508    10.0   .     S
Ce506     Ce514    10.0   .     S
Ce506     Ce507    10.0   .     S
Ce507     Ce508    9.999   .     S
Ce507     Ce509    10.0   .     S
Ce508     Ce510    10.0   .     S
Ce509     Ce510    9.999   .     S
Ce509     Ce516    10.0   .     S
Ce509     V545    10.001   .     S
Ce510     Ce515    10.0   .     S
Ce511     Ce512    9.999   .     S
Ce511     Ce515    10.0   .     S
Ce511     Ce513    10.0   .     S
Ce512     Ce514    10.0   .     S
Ce512     Ce516    10.0   .     S
Ce513     Ce514    9.999   .     S
Ce515     Ce516    9.999   .     S
Ce516     V533    10.001   .     S
Ce517     Ce518    9.999   .     S
Ce517     Ce520    10.0   1_565     S
Ce517     Ce523    10.0   .     S
Ce518     Ce524    10.0   .     S
Ce518     Ce519    10.0   .     S
Ce519     Ce520    9.999   1_565     S
Ce519     Ce521    10.0   1_565     S
Ce520     Ce519    9.999   1_545     S
Ce520     Ce517    10.0   1_545     S
Ce520     Ce522    10.0   .     S
Ce521     Ce522    9.999   .     S
Ce521     Ce519    10.0   1_545     S
Ce521     Ce527    10.0   .     S
Ce522     Ce528    10.0   .     S
Ce523     Ce524    9.999   .     S
Ce523     Ce526    10.0   1_565     S
Ce524     Ce525    10.0   .     S
Ce525     Ce526    9.999   1_565     S
Ce525     Ce527    10.0   1_565     S
Ce525     V556    10.001   .     S
Ce526     Ce525    9.999   1_545     S
Ce526     Ce523    10.0   1_545     S
Ce526     Ce528    10.0   .     S
Ce527     Ce528    9.999   .     S
Ce527     Ce525    10.0   1_545     S
Ce527     V539    10.001   .     S
V529     Er531    10.0   1_565     S
V529     V530    10.0   .     S
V530     Er531    10.0   1_565     S
Er531     V529    10.0   1_545     S
Er531     V530    10.0   1_545     S
Er531     Ti568    10.0   .     S
V532     Er534    10.0   .     S
V532     V533    10.0   .     S
V533     Er534    10.0   .     S
Er534     Ti569    10.0   .     S
V535     Er537    10.0   .     S
V535     V536    10.0   .     S
V536     Er537    10.0   .     S
Er537     Ti573    10.0   .     S
V538     Er540    10.0   1_655     S
V538     V539    10.0   .     S
V539     Er540    10.0   1_655     S
Er540     V538    10.0   1_455     S
Er540     V539    10.0   1_455     S
Er540     Ti567    10.0   .     S
V541     Er543    10.0   1_565     S
V541     V542    10.0   .     S
V542     Er543    10.0   1_565     S
Er543     V541    10.0   1_545     S
Er543     V542    10.0   1_545     S
Er543     Ti574    10.0   .     S
V544     Er546    10.0   .     S
V544     V545    10.0   .     S
V545     Er546    10.0   .     S
Er546     Ti566    10.0   .     S
V547     Er549    10.0   .     S
V547     V548    10.0   .     S
V548     Er549    10.0   .     S
Er549     Ti570    10.0   .     S
V550     Er552    10.0   1_655     S
V550     V551    10.0   .     S
V551     Er552    10.0   1_655     S
Er552     V550    10.0   1_455     S
Er552     V551    10.0   1_455     S
Er552     Ti576    10.0   .     S
V553     Er555    10.0   1_655     S
V553     V554    10.0   .     S
V554     Er555    10.0   1_655     S
Er555     V554    10.0   1_455     S
Er555     V553    10.0   1_455     S
Er555     Ti572    10.0   .     S
V556     Er558    10.0   1_665     S
V556     V557    10.0   .     S
V557     Er558    10.0   1_665     S
Er558     V556    10.0   1_445     S
Er558     V557    10.0   1_445     S
Er558     Ti575    10.0   .     S
V559     Er561    10.0   1_565     S
V559     V560    10.0   .     S
V560     Er561    10.0   1_565     S
Er561     V560    10.0   1_545     S
Er561     V559    10.0   1_545     S
Er561     Ti571    10.0   .     S
V562     Er564    10.0   .     S
V562     V563    10.0   .     S
V563     Er564    10.0   .     S
Er564     Ti565    10.0   .     S
Ti565     Ti574    10.0   .     S
Ti565     Ti571    10.0   .     S
Ti565     Ti569    10.0   .     S
Ti565     Ti573    10.0   .     S
Ti566     Ti569    10.0   .     S
Ti566     Ti570    10.0   .     S
Ti566     Ti574    10.0   .     S
Ti566     Ti568    10.0   .     S
Ti567     Ti570    10.0   .     S
Ti567     Ti576    10.0   .     S
Ti567     Ti568    10.0   .     S
Ti567     Ti575    10.0   .     S
Ti568     Ti574    10.0   .     S
Ti568     Ti575    10.0   .     S
Ti569     Ti573    10.0   .     S
Ti569     Ti570    10.0   .     S
Ti570     Ti576    10.0   .     S
Ti571     Ti572    10.0   .     S
Ti571     Ti575    10.0   .     S
Ti571     Ti574    10.0   .     S
Ti572     Ti573    10.0   .     S
Ti572     Ti576    10.0   .     S
Ti572     Ti575    10.0   .     S
Ti573     Ti576    10.0   .     S
