data_dnza
_audit_creation_date              2020-02-04
_audit_creation_method            'Pymatgen'
_symmetry_space_group_name_H-M    'P1'
_symmetry_Int_Tables_number       1
loop_
_symmetry_equiv_pos_as_xyz
  x,y,z
_cell_length_a                    105.3323
_cell_length_b                    105.3323
_cell_length_c                    105.3323
_cell_angle_alpha                 90.0
_cell_angle_beta                 90.0
_cell_angle_gamma                 90.0
loop_
_atom_site_label
_atom_site_type_symbol
_atom_site_fract_x
_atom_site_fract_y
_atom_site_fract_z
Ti1     Ti     0.2053   0.2053   0.4776
Ti2     Ti     0.2724   0.2053   0.5447
Ti3     Ti     0.2276   0.2947   0.4553
Ti4     Ti     0.2947   0.2947   0.5224
Ti5     Ti     0.2053   0.2724   0.5447
Ti6     Ti     0.2947   0.2276   0.4553
Ce7     Ce     0.7353   0.4476   0.3024
Ce8     Ce     0.8024   0.5147   0.3024
Ce9     Ce     0.8024   0.4476   0.2353
Ce10     Ce     0.7353   0.3024   0.4476
Ce11     Ce     0.8024   0.3024   0.5147
Ce12     Ce     0.8024   0.2353   0.4476
V13     V     0.658   0.3415   0.4085
V14     V     0.658   0.4085   0.3415
Er15     Er     0.5908   0.3415   0.3415
Er16     Er     0.5908   0.4085   0.4085
V17     V     0.9085   0.158   0.3415
V18     V     0.8415   0.158   0.4085
Er19     Er     0.8415   0.0908   0.3415
Er20     Er     0.9085   0.0908   0.4085
V21     V     0.8415   0.592   0.3415
V22     V     0.9085   0.592   0.4085
Er23     Er     0.8415   0.6592   0.4085
Er24     Er     0.9085   0.6592   0.3415
V25     V     0.9085   0.3415   0.158
V26     V     0.8415   0.4085   0.158
Er27     Er     0.8415   0.3415   0.0908
Er28     Er     0.9085   0.4085   0.0908
V29     V     0.8415   0.3415   0.592
V30     V     0.9085   0.4085   0.592
Er31     Er     0.8415   0.4085   0.6592
Er32     Er     0.9085   0.3415   0.6592
Ce33     Ce     0.9476   0.5147   0.4476
Ce34     Ce     0.9476   0.4476   0.5147
Ce35     Ce     0.0147   0.4476   0.4476
Ce36     Ce     0.9476   0.3024   0.2353
Ce37     Ce     0.9476   0.2353   0.3024
Ce38     Ce     0.0147   0.3024   0.3024
V39     V     0.092   0.3415   0.3415
V40     V     0.092   0.4085   0.4085
Er41     Er     0.1592   0.4085   0.3415
Er42     Er     0.1592   0.3415   0.4085
Ti43     Ti     0.7053   0.7053   0.4776
Ti44     Ti     0.7053   0.7724   0.5447
Ti45     Ti     0.7724   0.7053   0.5447
Ti46     Ti     0.7947   0.7276   0.4553
Ti47     Ti     0.7276   0.7947   0.4553
Ti48     Ti     0.7947   0.7947   0.5224
Ti49     Ti     0.4776   0.5447   0.5447
Ti50     Ti     0.5224   0.4553   0.4553
Ti51     Ti     0.4553   0.5224   0.4553
Ti52     Ti     0.5447   0.4776   0.5447
Ti53     Ti     0.5447   0.5447   0.4776
Ti54     Ti     0.4553   0.4553   0.5224
Ti55     Ti     0.4776   0.2053   0.2053
Ti56     Ti     0.5447   0.2724   0.2053
Ti57     Ti     0.5447   0.2053   0.2724
Ti58     Ti     0.5224   0.2947   0.2947
Ti59     Ti     0.4553   0.2947   0.2276
Ti60     Ti     0.4553   0.2276   0.2947
Ti61     Ti     0.7947   0.9553   0.2276
Ti62     Ti     0.7053   0.9776   0.2053
Ti63     Ti     0.7053   0.0447   0.2724
Ti64     Ti     0.7276   0.9553   0.2947
Ti65     Ti     0.7724   0.0447   0.2053
Ti66     Ti     0.7947   0.0224   0.2947
Ti67     Ti     0.2053   0.7053   0.9776
Ti68     Ti     0.2276   0.7947   0.9553
Ti69     Ti     0.2724   0.7053   0.0447
Ti70     Ti     0.2053   0.7724   0.0447
Ti71     Ti     0.2947   0.7276   0.9553
Ti72     Ti     0.2947   0.7947   0.0224
V73     V     0.908   0.5915   0.5915
V74     V     0.908   0.6585   0.6585
Er75     Er     0.8408   0.6585   0.5915
Er76     Er     0.8408   0.5915   0.6585
V77     V     0.342   0.6585   0.5915
V78     V     0.342   0.5915   0.6585
Er79     Er     0.4092   0.6585   0.6585
Er80     Er     0.4092   0.5915   0.5915
Ce81     Ce     0.2647   0.5524   0.6976
Ce82     Ce     0.1976   0.5524   0.7647
Ce83     Ce     0.1976   0.4853   0.6976
V84     V     0.0915   0.6585   0.842
V85     V     0.1585   0.5915   0.842
Er86     Er     0.1585   0.6585   0.9092
Er87     Er     0.0915   0.5915   0.9092
Ce88     Ce     0.9853   0.6976   0.6976
Ce89     Ce     0.0524   0.6976   0.7647
Ce90     Ce     0.0524   0.7647   0.6976
V91     V     0.1585   0.408   0.6585
V92     V     0.0915   0.408   0.5915
Er93     Er     0.1585   0.3408   0.5915
Er94     Er     0.0915   0.3408   0.6585
Ce95     Ce     0.9853   0.5524   0.5524
Ce96     Ce     0.0524   0.5524   0.4853
Ce97     Ce     0.0524   0.4853   0.5524
V98     V     0.1585   0.6585   0.408
V99     V     0.0915   0.5915   0.408
Er100     Er     0.1585   0.5915   0.3408
Er101     Er     0.0915   0.6585   0.3408
Ce102     Ce     0.1976   0.7647   0.5524
Ce103     Ce     0.1976   0.6976   0.4853
Ce104     Ce     0.2647   0.6976   0.5524
V105     V     0.0915   0.842   0.6585
V106     V     0.1585   0.842   0.5915
Er107     Er     0.1585   0.9092   0.6585
Er108     Er     0.0915   0.9092   0.5915
Ti109     Ti     0.9776   0.2053   0.7053
Ti110     Ti     0.9553   0.2276   0.7947
Ti111     Ti     0.0447   0.2724   0.7053
Ti112     Ti     0.0447   0.2053   0.7724
Ti113     Ti     0.9553   0.2947   0.7276
Ti114     Ti     0.0224   0.2947   0.7947
V115     V     0.908   0.0915   0.0915
V116     V     0.908   0.1585   0.1585
Er117     Er     0.8408   0.1585   0.0915
Er118     Er     0.8408   0.0915   0.1585
V119     V     0.0915   0.908   0.0915
V120     V     0.1585   0.908   0.1585
Er121     Er     0.0915   0.8408   0.1585
Er122     Er     0.1585   0.8408   0.0915
Ce123     Ce     0.0524   0.0524   0.9853
Ce124     Ce     0.0524   0.9853   0.0524
Ce125     Ce     0.9853   0.0524   0.0524
V126     V     0.0915   0.0915   0.908
V127     V     0.1585   0.1585   0.908
Er128     Er     0.1585   0.0915   0.8408
Er129     Er     0.0915   0.1585   0.8408
V130     V     0.1585   0.342   0.0915
V131     V     0.0915   0.342   0.1585
Er132     Er     0.1585   0.4092   0.1585
Er133     Er     0.0915   0.4092   0.0915
Ce134     Ce     0.1976   0.2647   0.0524
Ce135     Ce     0.1976   0.1976   0.9853
Ce136     Ce     0.2647   0.1976   0.0524
V137     V     0.342   0.0915   0.1585
V138     V     0.342   0.1585   0.0915
Er139     Er     0.4092   0.1585   0.1585
Er140     Er     0.4092   0.0915   0.0915
Ce141     Ce     0.1976   0.9853   0.1976
Ce142     Ce     0.1976   0.0524   0.2647
Ce143     Ce     0.2647   0.0524   0.1976
Ce144     Ce     0.0524   0.2647   0.1976
Ce145     Ce     0.9853   0.1976   0.1976
Ce146     Ce     0.0524   0.1976   0.2647
V147     V     0.0915   0.1585   0.342
V148     V     0.1585   0.0915   0.342
Er149     Er     0.1585   0.1585   0.4092
Er150     Er     0.0915   0.0915   0.4092
Ti151     Ti     0.2947   0.5224   0.2947
Ti152     Ti     0.2053   0.4776   0.2053
Ti153     Ti     0.2276   0.4553   0.2947
Ti154     Ti     0.2053   0.5447   0.2724
Ti155     Ti     0.2947   0.4553   0.2276
Ti156     Ti     0.2724   0.5447   0.2053
V157     V     0.3415   0.9085   0.158
V158     V     0.4085   0.8415   0.158
Er159     Er     0.3415   0.8415   0.0908
Er160     Er     0.4085   0.9085   0.0908
Ce161     Ce     0.2353   0.9476   0.3024
Ce162     Ce     0.3024   0.9476   0.2353
Ce163     Ce     0.3024   0.0147   0.3024
V164     V     0.158   0.9085   0.3415
V165     V     0.158   0.8415   0.4085
Er166     Er     0.0908   0.8415   0.3415
Er167     Er     0.0908   0.9085   0.4085
V168     V     0.3415   0.092   0.3415
V169     V     0.4085   0.092   0.4085
Er170     Er     0.4085   0.1592   0.3415
Er171     Er     0.3415   0.1592   0.4085
V172     V     0.592   0.8415   0.3415
V173     V     0.592   0.9085   0.4085
Er174     Er     0.6592   0.8415   0.4085
Er175     Er     0.6592   0.9085   0.3415
Ce176     Ce     0.5147   0.9476   0.4476
Ce177     Ce     0.4476   0.9476   0.5147
Ce178     Ce     0.4476   0.0147   0.4476
V179     V     0.3415   0.8415   0.592
V180     V     0.4085   0.9085   0.592
Er181     Er     0.3415   0.9085   0.6592
Er182     Er     0.4085   0.8415   0.6592
Ce183     Ce     0.4476   0.7353   0.3024
Ce184     Ce     0.4476   0.8024   0.2353
Ce185     Ce     0.5147   0.8024   0.3024
Ce186     Ce     0.3024   0.7353   0.4476
Ce187     Ce     0.2353   0.8024   0.4476
Ce188     Ce     0.3024   0.8024   0.5147
V189     V     0.3415   0.658   0.4085
V190     V     0.4085   0.658   0.3415
Er191     Er     0.4085   0.5908   0.4085
Er192     Er     0.3415   0.5908   0.3415
Ti193     Ti     0.2053   0.9776   0.7053
Ti194     Ti     0.2053   0.0447   0.7724
Ti195     Ti     0.2724   0.0447   0.7053
Ti196     Ti     0.2276   0.9553   0.7947
Ti197     Ti     0.2947   0.9553   0.7276
Ti198     Ti     0.2947   0.0224   0.7947
V199     V     0.6585   0.6585   0.908
V200     V     0.5915   0.5915   0.908
Er201     Er     0.6585   0.5915   0.8408
Er202     Er     0.5915   0.6585   0.8408
Ce203     Ce     0.6976   0.6976   0.9853
Ce204     Ce     0.6976   0.7647   0.0524
Ce205     Ce     0.7647   0.6976   0.0524
V206     V     0.5915   0.842   0.1585
V207     V     0.6585   0.842   0.0915
Er208     Er     0.6585   0.9092   0.1585
Er209     Er     0.5915   0.9092   0.0915
V210     V     0.842   0.6585   0.0915
V211     V     0.842   0.5915   0.1585
Er212     Er     0.9092   0.6585   0.1585
Er213     Er     0.9092   0.5915   0.0915
V214     V     0.5915   0.408   0.0915
V215     V     0.6585   0.408   0.1585
Er216     Er     0.5915   0.3408   0.1585
Er217     Er     0.6585   0.3408   0.0915
Ce218     Ce     0.7647   0.5524   0.1976
Ce219     Ce     0.6976   0.5524   0.2647
Ce220     Ce     0.6976   0.4853   0.1976
V221     V     0.5915   0.6585   0.342
V222     V     0.6585   0.5915   0.342
Er223     Er     0.6585   0.6585   0.4092
Er224     Er     0.5915   0.5915   0.4092
Ce225     Ce     0.5524   0.6976   0.2647
Ce226     Ce     0.4853   0.6976   0.1976
Ce227     Ce     0.5524   0.7647   0.1976
Ce228     Ce     0.5524   0.5524   0.9853
Ce229     Ce     0.5524   0.4853   0.0524
Ce230     Ce     0.4853   0.5524   0.0524
V231     V     0.408   0.5915   0.0915
V232     V     0.408   0.6585   0.1585
Er233     Er     0.3408   0.6585   0.0915
Er234     Er     0.3408   0.5915   0.1585
Ti235     Ti     0.0447   0.7053   0.2724
Ti236     Ti     0.9776   0.7053   0.2053
Ti237     Ti     0.0447   0.7724   0.2053
Ti238     Ti     0.9553   0.7947   0.2276
Ti239     Ti     0.9553   0.7276   0.2947
Ti240     Ti     0.0224   0.7947   0.2947
Ti241     Ti     0.7053   0.2053   0.9776
Ti242     Ti     0.7053   0.2724   0.0447
Ti243     Ti     0.7724   0.2053   0.0447
Ti244     Ti     0.7947   0.2276   0.9553
Ti245     Ti     0.7276   0.2947   0.9553
Ti246     Ti     0.7947   0.2947   0.0224
Ti247     Ti     0.5224   0.9553   0.9553
Ti248     Ti     0.4776   0.0447   0.0447
Ti249     Ti     0.4553   0.0224   0.9553
Ti250     Ti     0.5447   0.9776   0.0447
Ti251     Ti     0.5447   0.0447   0.9776
Ti252     Ti     0.4553   0.9553   0.0224
Ti253     Ti     0.9553   0.5224   0.9553
Ti254     Ti     0.0447   0.4776   0.0447
Ti255     Ti     0.0224   0.4553   0.9553
Ti256     Ti     0.9776   0.5447   0.0447
Ti257     Ti     0.0447   0.5447   0.9776
Ti258     Ti     0.9553   0.4553   0.0224
V259     V     0.5915   0.908   0.5915
V260     V     0.6585   0.908   0.6585
Er261     Er     0.5915   0.8408   0.6585
Er262     Er     0.6585   0.8408   0.5915
V263     V     0.6585   0.342   0.5915
V264     V     0.5915   0.342   0.6585
Er265     Er     0.5915   0.4092   0.5915
Er266     Er     0.6585   0.4092   0.6585
Ce267     Ce     0.6976   0.9853   0.6976
Ce268     Ce     0.6976   0.0524   0.7647
Ce269     Ce     0.7647   0.0524   0.6976
V270     V     0.842   0.0915   0.6585
V271     V     0.842   0.1585   0.5915
Er272     Er     0.9092   0.0915   0.5915
Er273     Er     0.9092   0.1585   0.6585
V274     V     0.6585   0.0915   0.842
V275     V     0.5915   0.1585   0.842
Er276     Er     0.6585   0.1585   0.9092
Er277     Er     0.5915   0.0915   0.9092
Ce278     Ce     0.5524   0.2647   0.6976
Ce279     Ce     0.5524   0.1976   0.7647
Ce280     Ce     0.4853   0.1976   0.6976
Ce281     Ce     0.6976   0.2647   0.5524
Ce282     Ce     0.7647   0.1976   0.5524
Ce283     Ce     0.6976   0.1976   0.4853
V284     V     0.408   0.0915   0.5915
V285     V     0.408   0.1585   0.6585
Er286     Er     0.3408   0.0915   0.6585
Er287     Er     0.3408   0.1585   0.5915
Ce288     Ce     0.5524   0.9853   0.5524
Ce289     Ce     0.4853   0.0524   0.5524
Ce290     Ce     0.5524   0.0524   0.4853
V291     V     0.5915   0.0915   0.408
V292     V     0.6585   0.1585   0.408
Er293     Er     0.6585   0.0915   0.3408
Er294     Er     0.5915   0.1585   0.3408
Ti295     Ti     0.7053   0.4776   0.7053
Ti296     Ti     0.7053   0.5447   0.7724
Ti297     Ti     0.7724   0.5447   0.7053
Ti298     Ti     0.7947   0.4553   0.7276
Ti299     Ti     0.7276   0.4553   0.7947
Ti300     Ti     0.7947   0.5224   0.7947
Ti301     Ti     0.9553   0.9553   0.5224
Ti302     Ti     0.0447   0.0447   0.4776
Ti303     Ti     0.9553   0.0224   0.4553
Ti304     Ti     0.0447   0.9776   0.5447
Ti305     Ti     0.9776   0.0447   0.5447
Ti306     Ti     0.0224   0.9553   0.4553
Ce307     Ce     0.4476   0.3024   0.7353
Ce308     Ce     0.4476   0.2353   0.8024
Ce309     Ce     0.5147   0.3024   0.8024
V310     V     0.592   0.3415   0.8415
V311     V     0.592   0.4085   0.9085
Er312     Er     0.6592   0.4085   0.8415
Er313     Er     0.6592   0.3415   0.9085
Ce314     Ce     0.4476   0.5147   0.9476
Ce315     Ce     0.5147   0.4476   0.9476
Ce316     Ce     0.4476   0.4476   0.0147
V317     V     0.3415   0.3415   0.092
V318     V     0.4085   0.4085   0.092
Er319     Er     0.4085   0.3415   0.1592
Er320     Er     0.3415   0.4085   0.1592
V321     V     0.3415   0.592   0.8415
V322     V     0.4085   0.592   0.9085
Er323     Er     0.3415   0.6592   0.9085
Er324     Er     0.4085   0.6592   0.8415
Ce325     Ce     0.3024   0.4476   0.7353
Ce326     Ce     0.2353   0.4476   0.8024
Ce327     Ce     0.3024   0.5147   0.8024
V328     V     0.4085   0.3415   0.658
V329     V     0.3415   0.4085   0.658
Er330     Er     0.3415   0.3415   0.5908
Er331     Er     0.4085   0.4085   0.5908
V332     V     0.3415   0.158   0.9085
V333     V     0.4085   0.158   0.8415
Er334     Er     0.3415   0.0908   0.8415
Er335     Er     0.4085   0.0908   0.9085
Ce336     Ce     0.3024   0.2353   0.9476
Ce337     Ce     0.2353   0.3024   0.9476
Ce338     Ce     0.3024   0.3024   0.0147
V339     V     0.158   0.3415   0.9085
V340     V     0.158   0.4085   0.8415
Er341     Er     0.0908   0.3415   0.8415
Er342     Er     0.0908   0.4085   0.9085
V343     V     0.8415   0.8415   0.092
V344     V     0.9085   0.9085   0.092
Er345     Er     0.8415   0.9085   0.1592
Er346     Er     0.9085   0.8415   0.1592
Ce347     Ce     0.9476   0.0147   0.9476
Ce348     Ce     0.9476   0.9476   0.0147
Ce349     Ce     0.0147   0.9476   0.9476
V350     V     0.092   0.9085   0.9085
V351     V     0.092   0.8415   0.8415
Er352     Er     0.1592   0.8415   0.9085
Er353     Er     0.1592   0.9085   0.8415
V354     V     0.9085   0.092   0.9085
V355     V     0.8415   0.092   0.8415
Er356     Er     0.9085   0.1592   0.8415
Er357     Er     0.8415   0.1592   0.9085
V358     V     0.658   0.9085   0.8415
V359     V     0.658   0.8415   0.9085
Er360     Er     0.5908   0.8415   0.8415
Er361     Er     0.5908   0.9085   0.9085
Ce362     Ce     0.7353   0.8024   0.9476
Ce363     Ce     0.8024   0.7353   0.9476
Ce364     Ce     0.8024   0.8024   0.0147
V365     V     0.9085   0.658   0.8415
V366     V     0.8415   0.658   0.9085
Er367     Er     0.8415   0.5908   0.8415
Er368     Er     0.9085   0.5908   0.9085
Ce369     Ce     0.9476   0.7353   0.8024
Ce370     Ce     0.9476   0.8024   0.7353
Ce371     Ce     0.0147   0.8024   0.8024
Ce372     Ce     0.8024   0.9476   0.7353
Ce373     Ce     0.7353   0.9476   0.8024
Ce374     Ce     0.8024   0.0147   0.8024
V375     V     0.8415   0.9085   0.658
V376     V     0.9085   0.8415   0.658
Er377     Er     0.8415   0.8415   0.5908
Er378     Er     0.9085   0.9085   0.5908
Ti379     Ti     0.4776   0.7053   0.7053
Ti380     Ti     0.5447   0.7724   0.7053
Ti381     Ti     0.5447   0.7053   0.7724
Ti382     Ti     0.4553   0.7276   0.7947
Ti383     Ti     0.4553   0.7947   0.7276
Ti384     Ti     0.5224   0.7947   0.7947
loop_
_geom_bond_atom_site_label_1
_geom_bond_atom_site_label_2
_geom_bond_distance
_geom_bond_site_symmetry_2
_ccdc_geom_bond_type
Ti1     Ti5    10.0   .     S
Ti1     Ti3    9.987   .     S
Ti1     Ti2    10.0   .     S
Ti1     Ti6    9.987   .     S
Ti1     Er149    10.016   .     S
Ti2     Ti4    9.987   .     S
Ti2     Ti6    9.987   .     S
Ti2     Ti5    10.0   .     S
Ti2     Er287    10.016   .     S
Ti3     Ti4    10.0   .     S
Ti3     Ti5    9.987   .     S
Ti3     Ti6    10.0   .     S
Ti3     Er42    10.016   .     S
Ti4     Ti5    9.987   .     S
Ti4     Ti6    10.0   .     S
Ti4     Er330    10.016   .     S
Ti5     Er93    10.016   .     S
Ti6     Er171    10.016   .     S
Ce7     Ce9    9.998   .     S
Ce7     Ce8    9.998   .     S
Ce7     V14    10.012   .     S
Ce8     Ce9    9.998   .     S
Ce8     V21    10.012   .     S
Ce9     V26    10.012   .     S
Ce10     Ce11    9.998   .     S
Ce10     Ce12    9.998   .     S
Ce10     V13    10.012   .     S
Ce11     Ce12    9.998   .     S
Ce11     V29    10.012   .     S
Ce12     V18    10.012   .     S
V13     V14    9.983   .     S
V13     Er15    9.999   .     S
V13     Er16    9.999   .     S
V14     Er15    9.999   .     S
V14     Er16    9.999   .     S
Er15     Er16    9.989   .     S
Er15     Ti58    10.016   .     S
Er16     Ti50    10.016   .     S
V17     V18    9.983   .     S
V17     Er19    9.999   .     S
V17     Er20    9.999   .     S
V17     Ce37    10.012   .     S
V18     Er19    9.999   .     S
V18     Er20    9.999   .     S
Er19     Er20    9.989   .     S
Er19     Ti66    10.016   .     S
Er20     Ti303    10.016   .     S
V21     V22    9.983   .     S
V21     Er23    9.999   .     S
V21     Er24    9.999   .     S
V22     Er23    9.999   .     S
V22     Er24    9.999   .     S
V22     Ce33    10.012   .     S
Er23     Er24    9.989   .     S
Er23     Ti46    10.016   .     S
Er24     Ti239    10.016   .     S
V25     V26    9.983   .     S
V25     Er27    9.999   .     S
V25     Er28    9.999   .     S
V25     Ce36    10.012   .     S
V26     Er27    9.999   .     S
V26     Er28    9.999   .     S
Er27     Er28    9.989   .     S
Er27     Ti246    10.016   .     S
Er28     Ti258    10.016   .     S
V29     V30    9.983   .     S
V29     Er32    9.999   .     S
V29     Er31    9.999   .     S
V30     Er32    9.999   .     S
V30     Er31    9.999   .     S
V30     Ce34    10.012   .     S
Er31     Er32    9.989   .     S
Er31     Ti298    10.016   .     S
Er32     Ti113    10.016   .     S
Ce33     Ce34    9.998   .     S
Ce33     Ce35    9.998   1_655     S
Ce34     Ce35    9.998   1_655     S
Ce35     Ce33    9.998   1_455     S
Ce35     Ce34    9.998   1_455     S
Ce35     V40    10.012   .     S
Ce36     Ce37    9.998   .     S
Ce36     Ce38    9.998   1_655     S
Ce37     Ce38    9.998   1_655     S
Ce38     Ce37    9.998   1_455     S
Ce38     Ce36    9.998   1_455     S
Ce38     V39    10.012   .     S
V39     V40    9.983   .     S
V39     Er42    9.999   .     S
V39     Er41    9.999   .     S
V40     Er42    9.999   .     S
V40     Er41    9.999   .     S
Er41     Er42    9.989   .     S
Er41     Ti153    10.016   .     S
Ti43     Ti44    10.0   .     S
Ti43     Ti47    9.987   .     S
Ti43     Ti45    10.0   .     S
Ti43     Ti46    9.987   .     S
Ti43     Er223    10.016   .     S
Ti44     Ti47    9.987   .     S
Ti44     Ti45    10.0   .     S
Ti44     Ti48    9.987   .     S
Ti44     Er262    10.016   .     S
Ti45     Ti46    9.987   .     S
Ti45     Ti48    9.987   .     S
Ti45     Er75    10.016   .     S
Ti46     Ti48    10.0   .     S
Ti46     Ti47    10.0   .     S
Ti47     Ti48    10.0   .     S
Ti47     Er174    10.016   .     S
Ti48     Er377    10.016   .     S
Ti49     Ti54    9.987   .     S
Ti49     Ti52    10.0   .     S
Ti49     Ti51    9.987   .     S
Ti49     Ti53    10.0   .     S
Ti49     Er80    10.016   .     S
Ti50     Ti51    10.0   .     S
Ti50     Ti53    9.987   .     S
Ti50     Ti54    10.0   .     S
Ti50     Ti52    9.987   .     S
Ti51     Ti53    9.987   .     S
Ti51     Ti54    10.0   .     S
Ti51     Er191    10.016   .     S
Ti52     Ti54    9.987   .     S
Ti52     Ti53    10.0   .     S
Ti52     Er265    10.016   .     S
Ti53     Er224    10.016   .     S
Ti54     Er331    10.016   .     S
Ti55     Ti60    9.987   .     S
Ti55     Ti59    9.987   .     S
Ti55     Ti57    10.0   .     S
Ti55     Ti56    10.0   .     S
Ti55     Er139    10.016   .     S
Ti56     Ti59    9.987   .     S
Ti56     Ti58    9.987   .     S
Ti56     Ti57    10.0   .     S
Ti56     Er216    10.016   .     S
Ti57     Ti60    9.987   .     S
Ti57     Ti58    9.987   .     S
Ti57     Er294    10.016   .     S
Ti58     Ti59    10.0   .     S
Ti58     Ti60    10.0   .     S
Ti59     Ti60    10.0   .     S
Ti59     Er319    10.016   .     S
Ti60     Er170    10.016   .     S
Ti61     Ti62    9.987   .     S
Ti61     Ti64    10.0   .     S
Ti61     Ti66    10.0   1_565     S
Ti61     Ti65    9.987   1_565     S
Ti61     Er345    10.016   .     S
Ti62     Ti63    10.0   1_565     S
Ti62     Ti64    9.987   .     S
Ti62     Ti65    10.0   1_565     S
Ti62     Er208    10.016   .     S
Ti63     Ti62    10.0   1_545     S
Ti63     Ti64    9.987   1_545     S
Ti63     Ti65    10.0   .     S
Ti63     Ti66    9.987   .     S
Ti63     Er293    10.016   .     S
Ti64     Ti63    9.987   1_565     S
Ti64     Ti66    10.0   1_565     S
Ti64     Er175    10.016   .     S
Ti65     Ti62    10.0   1_545     S
Ti65     Ti61    9.987   1_545     S
Ti65     Ti66    9.987   .     S
Ti65     Er118    10.016   .     S
Ti66     Ti61    10.0   1_545     S
Ti66     Ti64    10.0   1_545     S
Ti67     Ti69    10.0   1_556     S
Ti67     Ti71    9.987   .     S
Ti67     Ti70    10.0   1_556     S
Ti67     Ti68    9.987   .     S
Ti67     Er86    10.016   .     S
Ti68     Ti72    10.0   1_556     S
Ti68     Ti70    9.987   1_556     S
Ti68     Ti71    10.0   .     S
Ti68     Er352    10.016   .     S
Ti69     Ti67    10.0   1_554     S
Ti69     Ti71    9.987   1_554     S
Ti69     Ti72    9.987   .     S
Ti69     Ti70    10.0   .     S
Ti69     Er233    10.016   .     S
Ti70     Ti67    10.0   1_554     S
Ti70     Ti72    9.987   .     S
Ti70     Ti68    9.987   1_554     S
Ti70     Er122    10.016   .     S
Ti71     Ti69    9.987   1_556     S
Ti71     Ti72    10.0   1_556     S
Ti71     Er323    10.016   .     S
Ti72     Ti68    10.0   1_554     S
Ti72     Ti71    10.0   1_554     S
Ti72     Er159    10.016   .     S
V73     V74    9.983   .     S
V73     Er75    9.999   .     S
V73     Er76    9.999   .     S
V73     Ce95    10.012   .     S
V74     Er75    9.999   .     S
V74     Er76    9.999   .     S
V74     Ce88    10.012   .     S
Er75     Er76    9.989   .     S
Er76     Ti297    10.016   .     S
V77     V78    9.983   .     S
V77     Er79    9.999   .     S
V77     Er80    9.999   .     S
V77     Ce104    10.012   .     S
V78     Er79    9.999   .     S
V78     Er80    9.999   .     S
V78     Ce81    10.012   .     S
Er79     Er80    9.989   .     S
Er79     Ti379    10.016   .     S
Ce81     Ce82    9.998   .     S
Ce81     Ce83    9.998   .     S
Ce82     Ce83    9.998   .     S
Ce82     V85    10.012   .     S
Ce83     V91    10.012   .     S
V84     V85    9.983   .     S
V84     Er87    9.999   .     S
V84     Er86    9.999   .     S
V84     Ce89    10.012   .     S
V85     Er87    9.999   .     S
V85     Er86    9.999   .     S
Er86     Er87    9.989   .     S
Er87     Ti257    10.016   .     S
Ce88     Ce90    9.998   1_655     S
Ce88     Ce89    9.998   1_655     S
Ce89     Ce88    9.998   1_455     S
Ce89     Ce90    9.998   .     S
Ce90     Ce88    9.998   1_455     S
Ce90     V105    10.012   .     S
V91     V92    9.983   .     S
V91     Er94    9.999   .     S
V91     Er93    9.999   .     S
V92     Er94    9.999   .     S
V92     Er93    9.999   .     S
V92     Ce97    10.012   .     S
Er93     Er94    9.989   .     S
Er94     Ti111    10.016   .     S
Ce95     Ce97    9.998   1_655     S
Ce95     Ce96    9.998   1_655     S
Ce96     Ce95    9.998   1_455     S
Ce96     Ce97    9.998   .     S
Ce96     V99    10.012   .     S
Ce97     Ce95    9.998   1_455     S
V98     V99    9.983   .     S
V98     Er101    9.999   .     S
V98     Er100    9.999   .     S
V98     Ce103    10.012   .     S
V99     Er101    9.999   .     S
V99     Er100    9.999   .     S
Er100     Er101    9.989   .     S
Er100     Ti154    10.016   .     S
Er101     Ti235    10.016   .     S
Ce102     Ce104    9.998   .     S
Ce102     Ce103    9.998   .     S
Ce102     V106    10.012   .     S
Ce103     Ce104    9.998   .     S
V105     V106    9.983   .     S
V105     Er107    9.999   .     S
V105     Er108    9.999   .     S
V106     Er107    9.999   .     S
V106     Er108    9.999   .     S
Er107     Er108    9.989   .     S
Er107     Ti193    10.016   .     S
Er108     Ti304    10.016   .     S
Ti109     Ti111    10.0   1_655     S
Ti109     Ti113    9.987   .     S
Ti109     Ti112    10.0   1_655     S
Ti109     Ti110    9.987   .     S
Ti109     Er273    10.016   .     S
Ti110     Ti112    9.987   1_655     S
Ti110     Ti114    10.0   1_655     S
Ti110     Ti113    10.0   .     S
Ti110     Er356    10.016   .     S
Ti111     Ti109    10.0   1_455     S
Ti111     Ti113    9.987   1_455     S
Ti111     Ti112    10.0   .     S
Ti111     Ti114    9.987   .     S
Ti112     Ti109    10.0   1_455     S
Ti112     Ti110    9.987   1_455     S
Ti112     Ti114    9.987   .     S
Ti112     Er129    10.016   .     S
Ti113     Ti111    9.987   1_655     S
Ti113     Ti114    10.0   1_655     S
Ti114     Ti110    10.0   1_455     S
Ti114     Ti113    10.0   1_455     S
Ti114     Er341    10.016   .     S
V115     V116    9.983   .     S
V115     Er118    9.999   .     S
V115     Er117    9.999   .     S
V115     Ce125    10.012   .     S
V116     Er118    9.999   .     S
V116     Er117    9.999   .     S
V116     Ce145    10.012   .     S
Er117     Er118    9.989   .     S
Er117     Ti243    10.016   .     S
V119     V120    9.983   .     S
V119     Er121    9.999   .     S
V119     Er122    9.999   .     S
V119     Ce124    10.012   .     S
V120     Er121    9.999   .     S
V120     Er122    9.999   .     S
V120     Ce141    10.012   .     S
Er121     Er122    9.989   .     S
Er121     Ti237    10.016   .     S
Ce123     Ce124    9.998   1_546     S
Ce123     Ce125    9.998   1_456     S
Ce123     V126    10.012   .     S
Ce124     Ce123    9.998   1_564     S
Ce124     Ce125    9.998   1_465     S
Ce125     Ce124    9.998   1_645     S
Ce125     Ce123    9.998   1_654     S
V126     V127    9.983   .     S
V126     Er129    9.999   .     S
V126     Er128    9.999   .     S
V127     Er129    9.999   .     S
V127     Er128    9.999   .     S
V127     Ce135    10.012   .     S
Er128     Er129    9.989   .     S
Er128     Ti194    10.016   .     S
V130     V131    9.983   .     S
V130     Er133    9.999   .     S
V130     Er132    9.999   .     S
V130     Ce134    10.012   .     S
V131     Er133    9.999   .     S
V131     Er132    9.999   .     S
V131     Ce144    10.012   .     S
Er132     Er133    9.989   .     S
Er132     Ti152    10.016   .     S
Er133     Ti254    10.016   .     S
Ce134     Ce135    9.998   1_554     S
Ce134     Ce136    9.998   .     S
Ce135     Ce134    9.998   1_556     S
Ce135     Ce136    9.998   1_556     S
Ce136     Ce135    9.998   1_554     S
Ce136     V138    10.012   .     S
V137     V138    9.983   .     S
V137     Er139    9.999   .     S
V137     Er140    9.999   .     S
V137     Ce143    10.012   .     S
V138     Er139    9.999   .     S
V138     Er140    9.999   .     S
Er139     Er140    9.989   .     S
Er140     Ti248    10.016   .     S
Ce141     Ce142    9.998   1_565     S
Ce141     Ce143    9.998   1_565     S
Ce142     Ce141    9.998   1_545     S
Ce142     Ce143    9.998   .     S
Ce142     V148    10.012   .     S
Ce143     Ce141    9.998   1_545     S
Ce144     Ce145    9.998   1_455     S
Ce144     Ce146    9.998   .     S
Ce145     Ce144    9.998   1_655     S
Ce145     Ce146    9.998   1_655     S
Ce146     Ce145    9.998   1_455     S
Ce146     V147    10.012   .     S
V147     V148    9.983   .     S
V147     Er150    9.999   .     S
V147     Er149    9.999   .     S
V148     Er150    9.999   .     S
V148     Er149    9.999   .     S
Er149     Er150    9.989   .     S
Er150     Ti302    10.016   .     S
Ti151     Ti155    10.0   .     S
Ti151     Ti156    9.987   .     S
Ti151     Ti153    10.0   .     S
Ti151     Ti154    9.987   .     S
Ti151     Er192    10.016   .     S
Ti152     Ti156    10.0   .     S
Ti152     Ti153    9.987   .     S
Ti152     Ti154    10.0   .     S
Ti152     Ti155    9.987   .     S
Ti153     Ti155    10.0   .     S
Ti153     Ti154    9.987   .     S
Ti154     Ti156    10.0   .     S
Ti155     Ti156    9.987   .     S
Ti155     Er320    10.016   .     S
Ti156     Er234    10.016   .     S
V157     V158    9.983   .     S
V157     Er159    9.999   .     S
V157     Er160    9.999   .     S
V157     Ce162    10.012   .     S
V158     Er159    9.999   .     S
V158     Er160    9.999   .     S
V158     Ce184    10.012   .     S
Er159     Er160    9.989   .     S
Er160     Ti252    10.016   .     S
Ce161     Ce162    9.998   .     S
Ce161     Ce163    9.998   1_565     S
Ce161     V164    10.012   .     S
Ce162     Ce163    9.998   1_565     S
Ce163     Ce162    9.998   1_545     S
Ce163     Ce161    9.998   1_545     S
Ce163     V168    10.012   .     S
V164     V165    9.983   .     S
V164     Er166    9.999   .     S
V164     Er167    9.999   .     S
V165     Er166    9.999   .     S
V165     Er167    9.999   .     S
V165     Ce187    10.012   .     S
Er166     Er167    9.989   .     S
Er166     Ti240    10.016   .     S
Er167     Ti306    10.016   .     S
V168     V169    9.983   .     S
V168     Er171    9.999   .     S
V168     Er170    9.999   .     S
V169     Er171    9.999   .     S
V169     Er170    9.999   .     S
V169     Ce178    10.012   .     S
Er170     Er171    9.989   .     S
V172     V173    9.983   .     S
V172     Er175    9.999   .     S
V172     Er174    9.999   .     S
V172     Ce185    10.012   .     S
V173     Er175    9.999   .     S
V173     Er174    9.999   .     S
V173     Ce176    10.012   .     S
Er174     Er175    9.989   .     S
Ce176     Ce177    9.998   .     S
Ce176     Ce178    9.998   1_565     S
Ce177     Ce178    9.998   1_565     S
Ce177     V180    10.012   .     S
Ce178     Ce177    9.998   1_545     S
Ce178     Ce176    9.998   1_545     S
V179     V180    9.983   .     S
V179     Er182    9.999   .     S
V179     Er181    9.999   .     S
V179     Ce188    10.012   .     S
V180     Er182    9.999   .     S
V180     Er181    9.999   .     S
Er181     Er182    9.989   .     S
Er181     Ti197    10.016   .     S
Er182     Ti383    10.016   .     S
Ce183     Ce185    9.998   .     S
Ce183     Ce184    9.998   .     S
Ce183     V190    10.012   .     S
Ce184     Ce185    9.998   .     S
Ce186     Ce188    9.998   .     S
Ce186     Ce187    9.998   .     S
Ce186     V189    10.012   .     S
Ce187     Ce188    9.998   .     S
V189     V190    9.983   .     S
V189     Er192    9.999   .     S
V189     Er191    9.999   .     S
V190     Er192    9.999   .     S
V190     Er191    9.999   .     S
Er191     Er192    9.989   .     S
Ti193     Ti195    10.0   1_565     S
Ti193     Ti197    9.987   .     S
Ti193     Ti194    10.0   1_565     S
Ti193     Ti196    9.987   .     S
Ti194     Ti198    9.987   .     S
Ti194     Ti193    10.0   1_545     S
Ti194     Ti196    9.987   1_545     S
Ti194     Ti195    10.0   .     S
Ti195     Ti193    10.0   1_545     S
Ti195     Ti197    9.987   1_545     S
Ti195     Ti198    9.987   .     S
Ti195     Er286    10.016   .     S
Ti196     Ti198    10.0   1_565     S
Ti196     Ti197    10.0   .     S
Ti196     Ti194    9.987   1_565     S
Ti196     Er353    10.016   .     S
Ti197     Ti195    9.987   1_565     S
Ti197     Ti198    10.0   1_565     S
Ti198     Ti196    10.0   1_545     S
Ti198     Ti197    10.0   1_545     S
Ti198     Er334    10.016   .     S
V199     V200    9.983   .     S
V199     Er201    9.999   .     S
V199     Er202    9.999   .     S
V199     Ce203    10.012   .     S
V200     Er201    9.999   .     S
V200     Er202    9.999   .     S
V200     Ce228    10.012   .     S
Er201     Er202    9.989   .     S
Er201     Ti296    10.016   .     S
Er202     Ti381    10.016   .     S
Ce203     Ce205    9.998   1_556     S
Ce203     Ce204    9.998   1_556     S
Ce204     Ce203    9.998   1_554     S
Ce204     Ce205    9.998   .     S
Ce204     V207    10.012   .     S
Ce205     Ce203    9.998   1_554     S
Ce205     V210    10.012   .     S
V206     V207    9.983   .     S
V206     Er209    9.999   .     S
V206     Er208    9.999   .     S
V206     Ce227    10.012   .     S
V207     Er209    9.999   .     S
V207     Er208    9.999   .     S
Er208     Er209    9.989   .     S
Er209     Ti250    10.016   .     S
V210     V211    9.983   .     S
V210     Er212    9.999   .     S
V210     Er213    9.999   .     S
V211     Er212    9.999   .     S
V211     Er213    9.999   .     S
V211     Ce218    10.012   .     S
Er212     Er213    9.989   .     S
Er212     Ti236    10.016   .     S
Er213     Ti256    10.016   .     S
V214     V215    9.983   .     S
V214     Er216    9.999   .     S
V214     Er217    9.999   .     S
V214     Ce229    10.012   .     S
V215     Er216    9.999   .     S
V215     Er217    9.999   .     S
V215     Ce220    10.012   .     S
Er216     Er217    9.989   .     S
Er217     Ti242    10.016   .     S
Ce218     Ce219    9.998   .     S
Ce218     Ce220    9.998   .     S
Ce219     Ce220    9.998   .     S
Ce219     V222    10.012   .     S
V221     V222    9.983   .     S
V221     Er223    9.999   .     S
V221     Er224    9.999   .     S
V221     Ce225    10.012   .     S
V222     Er223    9.999   .     S
V222     Er224    9.999   .     S
Er223     Er224    9.989   .     S
Ce225     Ce226    9.998   .     S
Ce225     Ce227    9.998   .     S
Ce226     Ce227    9.998   .     S
Ce226     V232    10.012   .     S
Ce228     Ce230    9.998   1_556     S
Ce228     Ce229    9.998   1_556     S
Ce229     Ce228    9.998   1_554     S
Ce229     Ce230    9.998   .     S
Ce230     Ce228    9.998   1_554     S
Ce230     V231    10.012   .     S
V231     V232    9.983   .     S
V231     Er233    9.999   .     S
V231     Er234    9.999   .     S
V232     Er233    9.999   .     S
V232     Er234    9.999   .     S
Er233     Er234    9.989   .     S
Ti235     Ti236    10.0   1_455     S
Ti235     Ti239    9.987   1_455     S
Ti235     Ti237    10.0   .     S
Ti235     Ti240    9.987   .     S
Ti236     Ti235    10.0   1_655     S
Ti236     Ti239    9.987   .     S
Ti236     Ti237    10.0   1_655     S
Ti236     Ti238    9.987   .     S
Ti237     Ti240    9.987   .     S
Ti237     Ti236    10.0   1_455     S
Ti237     Ti238    9.987   1_455     S
Ti238     Ti240    10.0   1_655     S
Ti238     Ti237    9.987   1_655     S
Ti238     Ti239    10.0   .     S
Ti238     Er346    10.016   .     S
Ti239     Ti235    9.987   1_655     S
Ti239     Ti240    10.0   1_655     S
Ti240     Ti238    10.0   1_455     S
Ti240     Ti239    10.0   1_455     S
Ti241     Ti242    10.0   1_556     S
Ti241     Ti245    9.987   .     S
Ti241     Ti243    10.0   1_556     S
Ti241     Ti244    9.987   .     S
Ti241     Er276    10.016   .     S
Ti242     Ti241    10.0   1_554     S
Ti242     Ti245    9.987   1_554     S
Ti242     Ti243    10.0   .     S
Ti242     Ti246    9.987   .     S
Ti243     Ti246    9.987   .     S
Ti243     Ti244    9.987   1_554     S
Ti243     Ti241    10.0   1_554     S
Ti244     Ti246    10.0   1_556     S
Ti244     Ti243    9.987   1_556     S
Ti244     Ti245    10.0   .     S
Ti244     Er357    10.016   .     S
Ti245     Ti242    9.987   1_556     S
Ti245     Ti246    10.0   1_556     S
Ti245     Er313    10.016   .     S
Ti246     Ti244    10.0   1_554     S
Ti246     Ti245    10.0   1_554     S
Ti247     Ti251    9.987   1_565     S
Ti247     Ti252    10.0   1_556     S
Ti247     Ti250    9.987   1_556     S
Ti247     Ti249    10.0   1_565     S
Ti247     Er361    10.016   .     S
Ti248     Ti251    10.0   1_554     S
Ti248     Ti249    9.987   1_554     S
Ti248     Ti250    10.0   1_545     S
Ti248     Ti252    9.987   1_545     S
Ti249     Ti248    9.987   1_556     S
Ti249     Ti247    10.0   1_545     S
Ti249     Ti251    9.987   .     S
Ti249     Ti252    10.0   1_546     S
Ti249     Er335    10.016   .     S
Ti250     Ti248    10.0   1_565     S
Ti250     Ti251    10.0   1_564     S
Ti250     Ti247    9.987   1_554     S
Ti250     Ti252    9.987   .     S
Ti251     Ti248    10.0   1_556     S
Ti251     Ti250    10.0   1_546     S
Ti251     Ti247    9.987   1_545     S
Ti251     Er277    10.016   .     S
Ti252     Ti248    9.987   1_565     S
Ti252     Ti247    10.0   1_554     S
Ti252     Ti249    10.0   1_564     S
Ti253     Ti257    9.987   1_655     S
Ti253     Ti258    10.0   1_556     S
Ti253     Ti256    9.987   1_556     S
Ti253     Ti255    10.0   1_655     S
Ti253     Er368    10.016   .     S
Ti254     Ti256    10.0   1_455     S
Ti254     Ti258    9.987   1_455     S
Ti254     Ti257    10.0   1_554     S
Ti254     Ti255    9.987   1_554     S
Ti255     Ti254    9.987   1_556     S
Ti255     Ti253    10.0   1_455     S
Ti255     Ti257    9.987   .     S
Ti255     Ti258    10.0   1_456     S
Ti255     Er342    10.016   .     S
Ti256     Ti254    10.0   1_655     S
Ti256     Ti257    10.0   1_654     S
Ti256     Ti253    9.987   1_554     S
Ti256     Ti258    9.987   .     S
Ti257     Ti254    10.0   1_556     S
Ti257     Ti256    10.0   1_456     S
Ti257     Ti253    9.987   1_455     S
Ti258     Ti254    9.987   1_655     S
Ti258     Ti253    10.0   1_554     S
Ti258     Ti255    10.0   1_654     S
V259     V260    9.983   .     S
V259     Er261    9.999   .     S
V259     Er262    9.999   .     S
V259     Ce288    10.012   .     S
V260     Er261    9.999   .     S
V260     Er262    9.999   .     S
V260     Ce267    10.012   .     S
Er261     Er262    9.989   .     S
Er261     Ti380    10.016   .     S
V263     V264    9.983   .     S
V263     Er266    9.999   .     S
V263     Er265    9.999   .     S
V263     Ce281    10.012   .     S
V264     Er266    9.999   .     S
V264     Er265    9.999   .     S
V264     Ce278    10.012   .     S
Er265     Er266    9.989   .     S
Er266     Ti295    10.016   .     S
Ce267     Ce268    9.998   1_565     S
Ce267     Ce269    9.998   1_565     S
Ce268     Ce267    9.998   1_545     S
Ce268     Ce269    9.998   .     S
Ce268     V274    10.012   .     S
Ce269     Ce267    9.998   1_545     S
Ce269     V270    10.012   .     S
V270     V271    9.983   .     S
V270     Er273    9.999   .     S
V270     Er272    9.999   .     S
V271     Er273    9.999   .     S
V271     Er272    9.999   .     S
V271     Ce282    10.012   .     S
Er272     Er273    9.989   .     S
Er272     Ti305    10.016   .     S
V274     V275    9.983   .     S
V274     Er276    9.999   .     S
V274     Er277    9.999   .     S
V275     Er276    9.999   .     S
V275     Er277    9.999   .     S
V275     Ce279    10.012   .     S
Er276     Er277    9.989   .     S
Ce278     Ce279    9.998   .     S
Ce278     Ce280    9.998   .     S
Ce279     Ce280    9.998   .     S
Ce280     V285    10.012   .     S
Ce281     Ce283    9.998   .     S
Ce281     Ce282    9.998   .     S
Ce282     Ce283    9.998   .     S
Ce283     V292    10.012   .     S
V284     V285    9.983   .     S
V284     Er286    9.999   .     S
V284     Er287    9.999   .     S
V284     Ce289    10.012   .     S
V285     Er286    9.999   .     S
V285     Er287    9.999   .     S
Er286     Er287    9.989   .     S
Ce288     Ce290    9.998   1_565     S
Ce288     Ce289    9.998   1_565     S
Ce289     Ce290    9.998   .     S
Ce289     Ce288    9.998   1_545     S
Ce290     Ce288    9.998   1_545     S
Ce290     V291    10.012   .     S
V291     V292    9.983   .     S
V291     Er293    9.999   .     S
V291     Er294    9.999   .     S
V292     Er293    9.999   .     S
V292     Er294    9.999   .     S
Er293     Er294    9.989   .     S
Ti295     Ti297    10.0   .     S
Ti295     Ti298    9.987   .     S
Ti295     Ti296    10.0   .     S
Ti295     Ti299    9.987   .     S
Ti296     Ti300    9.987   .     S
Ti296     Ti299    9.987   .     S
Ti296     Ti297    10.0   .     S
Ti297     Ti300    9.987   .     S
Ti297     Ti298    9.987   .     S
Ti298     Ti300    10.0   .     S
Ti298     Ti299    10.0   .     S
Ti299     Ti300    10.0   .     S
Ti299     Er312    10.016   .     S
Ti300     Er367    10.016   .     S
Ti301     Ti304    9.987   1_655     S
Ti301     Ti306    10.0   1_655     S
Ti301     Ti305    9.987   1_565     S
Ti301     Ti303    10.0   1_565     S
Ti301     Er378    10.016   .     S
Ti302     Ti304    10.0   1_545     S
Ti302     Ti306    9.987   1_545     S
Ti302     Ti305    10.0   1_455     S
Ti302     Ti303    9.987   1_455     S
Ti303     Ti302    9.987   1_655     S
Ti303     Ti301    10.0   1_545     S
Ti303     Ti305    9.987   .     S
Ti303     Ti306    10.0   1_645     S
Ti304     Ti302    10.0   1_565     S
Ti304     Ti305    10.0   1_465     S
Ti304     Ti301    9.987   1_455     S
Ti304     Ti306    9.987   .     S
Ti305     Ti302    10.0   1_655     S
Ti305     Ti304    10.0   1_645     S
Ti305     Ti301    9.987   1_545     S
Ti306     Ti302    9.987   1_565     S
Ti306     Ti301    10.0   1_455     S
Ti306     Ti303    10.0   1_465     S
Ce307     Ce309    9.998   .     S
Ce307     Ce308    9.998   .     S
Ce307     V328    10.012   .     S
Ce308     Ce309    9.998   .     S
Ce308     V333    10.012   .     S
Ce309     V310    10.012   .     S
V310     V311    9.983   .     S
V310     Er312    9.999   .     S
V310     Er313    9.999   .     S
V311     Er312    9.999   .     S
V311     Er313    9.999   .     S
V311     Ce315    10.012   .     S
Er312     Er313    9.989   .     S
Ce314     Ce315    9.998   .     S
Ce314     Ce316    9.998   1_556     S
Ce314     V322    10.012   .     S
Ce315     Ce316    9.998   1_556     S
Ce316     Ce314    9.998   1_554     S
Ce316     Ce315    9.998   1_554     S
Ce316     V318    10.012   .     S
V317     V318    9.983   .     S
V317     Er320    9.999   .     S
V317     Er319    9.999   .     S
V317     Ce338    10.012   .     S
V318     Er320    9.999   .     S
V318     Er319    9.999   .     S
Er319     Er320    9.989   .     S
V321     V322    9.983   .     S
V321     Er323    9.999   .     S
V321     Er324    9.999   .     S
V321     Ce327    10.012   .     S
V322     Er323    9.999   .     S
V322     Er324    9.999   .     S
Er323     Er324    9.989   .     S
Er324     Ti382    10.016   .     S
Ce325     Ce327    9.998   .     S
Ce325     Ce326    9.998   .     S
Ce325     V329    10.012   .     S
Ce326     Ce327    9.998   .     S
Ce326     V340    10.012   .     S
V328     V329    9.983   .     S
V328     Er330    9.999   .     S
V328     Er331    9.999   .     S
V329     Er330    9.999   .     S
V329     Er331    9.999   .     S
Er330     Er331    9.989   .     S
V332     V333    9.983   .     S
V332     Er334    9.999   .     S
V332     Er335    9.999   .     S
V332     Ce336    10.012   .     S
V333     Er334    9.999   .     S
V333     Er335    9.999   .     S
Er334     Er335    9.989   .     S
Ce336     Ce338    9.998   1_556     S
Ce336     Ce337    9.998   .     S
Ce337     Ce338    9.998   1_556     S
Ce337     V339    10.012   .     S
Ce338     Ce336    9.998   1_554     S
Ce338     Ce337    9.998   1_554     S
V339     V340    9.983   .     S
V339     Er341    9.999   .     S
V339     Er342    9.999   .     S
V340     Er341    9.999   .     S
V340     Er342    9.999   .     S
Er341     Er342    9.989   .     S
V343     V344    9.983   .     S
V343     Er346    9.999   .     S
V343     Er345    9.999   .     S
V343     Ce364    10.012   .     S
V344     Er346    9.999   .     S
V344     Er345    9.999   .     S
V344     Ce348    10.012   .     S
Er345     Er346    9.989   .     S
Ce347     Ce348    9.998   1_546     S
Ce347     Ce349    9.998   1_645     S
Ce347     V354    10.012   .     S
Ce348     Ce349    9.998   1_654     S
Ce348     Ce347    9.998   1_564     S
Ce349     Ce348    9.998   1_456     S
Ce349     Ce347    9.998   1_465     S
Ce349     V350    10.012   .     S
V350     V351    9.983   .     S
V350     Er353    9.999   .     S
V350     Er352    9.999   .     S
V351     Er353    9.999   .     S
V351     Er352    9.999   .     S
V351     Ce371    10.012   .     S
Er352     Er353    9.989   .     S
V354     V355    9.983   .     S
V354     Er357    9.999   .     S
V354     Er356    9.999   .     S
V355     Er357    9.999   .     S
V355     Er356    9.999   .     S
V355     Ce374    10.012   .     S
Er356     Er357    9.989   .     S
V358     V359    9.983   .     S
V358     Er360    9.999   .     S
V358     Er361    9.999   .     S
V358     Ce373    10.012   .     S
V359     Er360    9.999   .     S
V359     Er361    9.999   .     S
V359     Ce362    10.012   .     S
Er360     Er361    9.989   .     S
Er360     Ti384    10.016   .     S
Ce362     Ce364    9.998   1_556     S
Ce362     Ce363    9.998   .     S
Ce363     Ce364    9.998   1_556     S
Ce363     V366    10.012   .     S
Ce364     Ce362    9.998   1_554     S
Ce364     Ce363    9.998   1_554     S
V365     V366    9.983   .     S
V365     Er367    9.999   .     S
V365     Er368    9.999   .     S
V365     Ce369    10.012   .     S
V366     Er367    9.999   .     S
V366     Er368    9.999   .     S
Er367     Er368    9.989   .     S
Ce369     Ce371    9.998   1_655     S
Ce369     Ce370    9.998   .     S
Ce370     Ce371    9.998   1_655     S
Ce370     V376    10.012   .     S
Ce371     Ce369    9.998   1_455     S
Ce371     Ce370    9.998   1_455     S
Ce372     Ce374    9.998   1_565     S
Ce372     Ce373    9.998   .     S
Ce372     V375    10.012   .     S
Ce373     Ce374    9.998   1_565     S
Ce374     Ce372    9.998   1_545     S
Ce374     Ce373    9.998   1_545     S
V375     V376    9.983   .     S
V375     Er377    9.999   .     S
V375     Er378    9.999   .     S
V376     Er377    9.999   .     S
V376     Er378    9.999   .     S
Er377     Er378    9.989   .     S
Ti379     Ti380    10.0   .     S
Ti379     Ti383    9.987   .     S
Ti379     Ti381    10.0   .     S
Ti379     Ti382    9.987   .     S
Ti380     Ti384    9.987   .     S
Ti380     Ti381    10.0   .     S
Ti380     Ti383    9.987   .     S
Ti381     Ti384    9.987   .     S
Ti381     Ti382    9.987   .     S
Ti382     Ti384    10.0   .     S
Ti382     Ti383    10.0   .     S
Ti383     Ti384    10.0   .     S
