data_dpca
_audit_creation_date              2020-02-04
_audit_creation_method            'Pymatgen'
_symmetry_space_group_name_H-M    'P1'
_symmetry_Int_Tables_number       1
loop_
_symmetry_equiv_pos_as_xyz
  x,y,z
_cell_length_a                    168.686
_cell_length_b                    168.686
_cell_length_c                    168.686
_cell_angle_alpha                 90.0
_cell_angle_beta                 90.0
_cell_angle_gamma                 90.0
loop_
_atom_site_label
_atom_site_type_symbol
_atom_site_fract_x
_atom_site_fract_y
_atom_site_fract_z
Ce1     Ce     0.865   0.1309   0.8352
Ce2     Ce     0.8352   0.1191   0.885
Ce3     Ce     0.885   0.1309   0.9148
Ce4     Ce     0.9148   0.1191   0.865
Ce5     Ce     0.8352   0.865   0.1309
Ce6     Ce     0.885   0.8352   0.1191
Ce7     Ce     0.9148   0.885   0.1309
Ce8     Ce     0.865   0.9148   0.1191
Ce9     Ce     0.1309   0.8352   0.865
Ce10     Ce     0.1191   0.885   0.8352
Ce11     Ce     0.1309   0.9148   0.885
Ce12     Ce     0.1191   0.865   0.9148
Ce13     Ce     0.865   0.6191   0.9148
Ce14     Ce     0.8352   0.6309   0.865
Ce15     Ce     0.9148   0.6309   0.885
Ce16     Ce     0.885   0.6191   0.8352
Ce17     Ce     0.9148   0.865   0.6191
Ce18     Ce     0.865   0.8352   0.6309
Ce19     Ce     0.885   0.9148   0.6309
Ce20     Ce     0.8352   0.885   0.6191
Ce21     Ce     0.6191   0.9148   0.865
Ce22     Ce     0.6309   0.865   0.8352
Ce23     Ce     0.6309   0.885   0.9148
Ce24     Ce     0.6191   0.8352   0.885
Ce25     Ce     0.865   0.6309   0.3352
Ce26     Ce     0.8352   0.6191   0.385
Ce27     Ce     0.9148   0.6191   0.365
Ce28     Ce     0.885   0.6309   0.4148
Ce29     Ce     0.1191   0.8352   0.385
Ce30     Ce     0.1309   0.885   0.4148
Ce31     Ce     0.1191   0.9148   0.365
Ce32     Ce     0.1309   0.865   0.3352
Ce33     Ce     0.8352   0.385   0.1191
Ce34     Ce     0.885   0.4148   0.1309
Ce35     Ce     0.9148   0.365   0.1191
Ce36     Ce     0.865   0.3352   0.1309
Er37     Er     0.25   0.6839   0.3161
V38     V     0.2796   0.6468   0.3516
V39     V     0.2204   0.6484   0.3532
V40     V     0.1468   0.8516   0.2796
Er41     Er     0.1839   0.8161   0.25
V42     V     0.1484   0.8532   0.2204
Ti43     Ti     0.25   0.7258   0.2742
Ti44     Ti     0.2742   0.75   0.2258
Ti45     Ti     0.2258   0.7742   0.25
V46     V     0.3532   0.7204   0.1484
Er47     Er     0.3161   0.75   0.1839
V48     V     0.3516   0.7796   0.1468
V49     V     0.8532   0.5296   0.6016
Er50     Er     0.8161   0.5   0.5661
V51     V     0.8516   0.4704   0.6032
V52     V     0.7204   0.6016   0.3968
Er53     Er     0.75   0.5661   0.4339
V54     V     0.7796   0.6032   0.3984
Ti55     Ti     0.7258   0.4758   0.5
Ti56     Ti     0.75   0.5242   0.4758
Ti57     Ti     0.7742   0.5   0.5242
Er58     Er     0.6839   0.4339   0.5
V59     V     0.6468   0.3984   0.4704
V60     V     0.6484   0.3968   0.5296
Ce61     Ce     0.635   0.6648   0.3691
Ce62     Ce     0.6648   0.615   0.3809
Ce63     Ce     0.615   0.5852   0.3691
Ce64     Ce     0.5852   0.635   0.3809
Ce65     Ce     0.615   0.3809   0.6648
Ce66     Ce     0.6648   0.3691   0.635
Ce67     Ce     0.5852   0.3691   0.615
Ce68     Ce     0.635   0.3809   0.5852
Er69     Er     0.4339   0.5   0.6839
V70     V     0.3984   0.4704   0.6468
V71     V     0.3968   0.5296   0.6484
V72     V     0.6016   0.3968   0.7204
Er73     Er     0.5661   0.4339   0.75
V74     V     0.6032   0.3984   0.7796
Ti75     Ti     0.4758   0.5   0.7258
Ti76     Ti     0.5242   0.4758   0.75
Ti77     Ti     0.5   0.5242   0.7742
V78     V     0.5296   0.6016   0.8532
Er79     Er     0.5   0.5661   0.8161
V80     V     0.4704   0.6032   0.8516
Ce81     Ce     0.365   0.6309   0.8352
Ce82     Ce     0.3352   0.6191   0.885
Ce83     Ce     0.385   0.6309   0.9148
Ce84     Ce     0.4148   0.6191   0.865
Ce85     Ce     0.615   0.8691   0.5852
Ce86     Ce     0.6648   0.8809   0.615
Ce87     Ce     0.5852   0.8809   0.635
Ce88     Ce     0.635   0.8691   0.6648
Er89     Er     0.75   0.9339   0.5661
V90     V     0.7204   0.8968   0.6016
V91     V     0.7796   0.8984   0.6032
V92     V     0.6484   0.0296   0.3968
Er93     Er     0.6839   0.0   0.4339
V94     V     0.6468   0.9704   0.3984
Ti95     Ti     0.75   0.9758   0.5242
Ti96     Ti     0.7258   0.0   0.4758
Ti97     Ti     0.7742   0.0242   0.5
V98     V     0.8516   0.1032   0.4704
Er99     Er     0.8161   0.0661   0.5
V100     V     0.8532   0.1016   0.5296
Ce101     Ce     0.865   0.1191   0.4148
Ce102     Ce     0.8352   0.1309   0.365
Ce103     Ce     0.9148   0.1309   0.385
Ce104     Ce     0.885   0.1191   0.3352
Er105     Er     0.6839   0.8161   0.75
V106     V     0.6468   0.8516   0.7796
V107     V     0.6484   0.8532   0.7204
Er108     Er     0.75   0.6839   0.8161
V109     V     0.7796   0.6468   0.8516
V110     V     0.7204   0.6484   0.8532
Ti111     Ti     0.75   0.7258   0.7742
Ti112     Ti     0.7742   0.75   0.7258
Ti113     Ti     0.7258   0.7742   0.75
V114     V     0.8532   0.7204   0.6484
Er115     Er     0.8161   0.75   0.6839
V116     V     0.8516   0.7796   0.6468
Ce117     Ce     0.365   0.1309   0.3352
Ce118     Ce     0.4148   0.1191   0.365
Ce119     Ce     0.3352   0.1191   0.385
Ce120     Ce     0.385   0.1309   0.4148
Ce121     Ce     0.4148   0.385   0.1309
Ce122     Ce     0.385   0.3352   0.1191
Ce123     Ce     0.365   0.4148   0.1191
Ce124     Ce     0.3352   0.365   0.1309
Ce125     Ce     0.5852   0.615   0.8691
Ce126     Ce     0.615   0.6648   0.8809
Ce127     Ce     0.635   0.5852   0.8809
Ce128     Ce     0.6648   0.635   0.8691
Ce129     Ce     0.8691   0.5852   0.615
Ce130     Ce     0.8809   0.615   0.6648
Ce131     Ce     0.8809   0.635   0.5852
Ce132     Ce     0.8691   0.6648   0.635
Ce133     Ce     0.3352   0.885   0.1191
Ce134     Ce     0.365   0.8352   0.1309
Ce135     Ce     0.385   0.9148   0.1309
Ce136     Ce     0.4148   0.865   0.1191
Er137     Er     0.5   0.8161   0.0661
V138     V     0.5296   0.8532   0.1016
V139     V     0.4704   0.8516   0.1032
Er140     Er     0.5661   0.75   0.9339
V141     V     0.6016   0.7204   0.8968
V142     V     0.6032   0.7796   0.8984
Ti143     Ti     0.5242   0.75   0.9758
Ti144     Ti     0.4758   0.7258   0.0
Ti145     Ti     0.5   0.7742   0.0242
V146     V     0.3968   0.6484   0.0296
Er147     Er     0.4339   0.6839   0.0
V148     V     0.3984   0.6468   0.9704
Ce149     Ce     0.3809   0.635   0.0852
Ce150     Ce     0.3691   0.6648   0.135
Ce151     Ce     0.3691   0.5852   0.115
Ce152     Ce     0.3809   0.615   0.1648
Er153     Er     0.5661   0.5   0.3161
V154     V     0.6032   0.4704   0.3516
V155     V     0.6016   0.5296   0.3532
Er156     Er     0.5   0.4339   0.1839
V157     V     0.5296   0.3968   0.1484
V158     V     0.4704   0.3984   0.1468
Ti159     Ti     0.5242   0.5   0.2742
Ti160     Ti     0.5   0.4758   0.2258
Ti161     Ti     0.4758   0.5242   0.25
V162     V     0.3968   0.6016   0.2204
Er163     Er     0.4339   0.5661   0.25
V164     V     0.3984   0.6032   0.2796
Ce165     Ce     0.365   0.6191   0.4148
Ce166     Ce     0.4148   0.6309   0.385
Ce167     Ce     0.3352   0.6309   0.365
Ce168     Ce     0.385   0.6191   0.3352
V169     V     0.2204   0.3968   0.6016
Er170     Er     0.25   0.4339   0.5661
V171     V     0.2796   0.3984   0.6032
Er172     Er     0.1839   0.5   0.4339
V173     V     0.1484   0.5296   0.3968
V174     V     0.1468   0.4704   0.3984
Ti175     Ti     0.2742   0.5242   0.5
Ti176     Ti     0.2258   0.5   0.4758
Ti177     Ti     0.25   0.4758   0.5242
Er178     Er     0.3161   0.5661   0.5
V179     V     0.3516   0.6032   0.4704
V180     V     0.3532   0.6016   0.5296
Ce181     Ce     0.1191   0.4148   0.865
Ce182     Ce     0.1309   0.365   0.8352
Ce183     Ce     0.1309   0.385   0.9148
Ce184     Ce     0.1191   0.3352   0.885
Er185     Er     0.9339   0.5661   0.75
V186     V     0.8968   0.6016   0.7204
V187     V     0.8984   0.6032   0.7796
Er188     Er     0.0661   0.5   0.8161
V189     V     0.1016   0.5296   0.8532
V190     V     0.1032   0.4704   0.8516
Ti191     Ti     0.9758   0.5242   0.75
Ti192     Ti     0.0   0.4758   0.7258
Ti193     Ti     0.0242   0.5   0.7742
V194     V     0.0296   0.3968   0.6484
Er195     Er     0.0   0.4339   0.6839
V196     V     0.9704   0.3984   0.6468
Ce197     Ce     0.0852   0.3809   0.635
Ce198     Ce     0.135   0.3691   0.6648
Ce199     Ce     0.115   0.3691   0.5852
Ce200     Ce     0.1648   0.3809   0.615
Ce201     Ce     0.635   0.0852   0.3809
Ce202     Ce     0.6648   0.135   0.3691
Ce203     Ce     0.5852   0.115   0.3691
Ce204     Ce     0.615   0.1648   0.3809
Ce205     Ce     0.3352   0.385   0.6191
Ce206     Ce     0.385   0.4148   0.6309
Ce207     Ce     0.365   0.3352   0.6309
Ce208     Ce     0.4148   0.365   0.6191
Er209     Er     0.4339   0.1839   0.5
V210     V     0.3968   0.1484   0.5296
V211     V     0.3984   0.1468   0.4704
V212     V     0.6016   0.2204   0.3968
Er213     Er     0.5661   0.25   0.4339
V214     V     0.6032   0.2796   0.3984
Ti215     Ti     0.4758   0.2258   0.5
Ti216     Ti     0.5   0.2742   0.5242
Ti217     Ti     0.5242   0.25   0.4758
Er218     Er     0.5   0.3161   0.5661
V219     V     0.4704   0.3516   0.6032
V220     V     0.5296   0.3532   0.6016
Ce221     Ce     0.6191   0.3352   0.385
Ce222     Ce     0.6309   0.385   0.4148
Ce223     Ce     0.6309   0.365   0.3352
Ce224     Ce     0.6191   0.4148   0.365
V225     V     0.3516   0.1468   0.2796
Er226     Er     0.3161   0.1839   0.25
V227     V     0.3532   0.1484   0.2204
V228     V     0.2204   0.3532   0.1484
Er229     Er     0.25   0.3161   0.1839
V230     V     0.2796   0.3516   0.1468
Ti231     Ti     0.2258   0.25   0.2742
Ti232     Ti     0.2742   0.2258   0.25
Ti233     Ti     0.25   0.2742   0.2258
V234     V     0.1468   0.2796   0.3516
Er235     Er     0.1839   0.25   0.3161
V236     V     0.1484   0.2204   0.3532
Ce237     Ce     0.1191   0.365   0.4148
Ce238     Ce     0.1309   0.3352   0.365
Ce239     Ce     0.1191   0.385   0.3352
Ce240     Ce     0.1309   0.4148   0.385
Ce241     Ce     0.3691   0.635   0.6648
Ce242     Ce     0.3809   0.6648   0.615
Ce243     Ce     0.3691   0.615   0.5852
Ce244     Ce     0.3809   0.5852   0.635
Er245     Er     0.5   0.6839   0.4339
V246     V     0.4704   0.6468   0.3984
V247     V     0.5296   0.6484   0.3968
V248     V     0.3984   0.7796   0.6032
Er249     Er     0.4339   0.75   0.5661
V250     V     0.3968   0.7204   0.6016
Ti251     Ti     0.5   0.7258   0.4758
Ti252     Ti     0.4758   0.75   0.5242
Ti253     Ti     0.5242   0.7742   0.5
V254     V     0.6016   0.8532   0.5296
Er255     Er     0.5661   0.8161   0.5
V256     V     0.6032   0.8516   0.4704
Ce257     Ce     0.6309   0.8352   0.365
Ce258     Ce     0.6191   0.885   0.3352
Ce259     Ce     0.6309   0.9148   0.385
Ce260     Ce     0.6191   0.865   0.4148
Ce261     Ce     0.8352   0.365   0.6309
Ce262     Ce     0.885   0.3352   0.6191
Ce263     Ce     0.9148   0.385   0.6309
Ce264     Ce     0.865   0.4148   0.6191
Er265     Er     0.1839   0.9339   0.5
V266     V     0.1484   0.8968   0.5296
V267     V     0.1468   0.8984   0.4704
Er268     Er     0.25   0.0661   0.4339
V269     V     0.2204   0.1016   0.3968
V270     V     0.2796   0.1032   0.3984
Ti271     Ti     0.2258   0.9758   0.5
Ti272     Ti     0.2742   0.0   0.5242
Ti273     Ti     0.25   0.0242   0.4758
Er274     Er     0.3161   0.0   0.5661
V275     V     0.3516   0.9704   0.6032
V276     V     0.3532   0.0296   0.6016
Ce277     Ce     0.3691   0.0852   0.615
Ce278     Ce     0.3809   0.135   0.5852
Ce279     Ce     0.3691   0.1648   0.635
Ce280     Ce     0.3809   0.115   0.6648
Er281     Er     0.4339   0.0661   0.75
V282     V     0.3984   0.1032   0.7796
V283     V     0.3968   0.1016   0.7204
Er284     Er     0.5   0.9339   0.6839
V285     V     0.5296   0.8968   0.6484
V286     V     0.4704   0.8984   0.6468
Ti287     Ti     0.5   0.9758   0.7258
Ti288     Ti     0.4758   0.0242   0.75
Ti289     Ti     0.5242   0.0   0.7742
V290     V     0.6016   0.0296   0.8532
Er291     Er     0.5661   0.0   0.8161
V292     V     0.6032   0.9704   0.8516
Ce293     Ce     0.5852   0.135   0.8809
Ce294     Ce     0.615   0.0852   0.8691
Ce295     Ce     0.635   0.1648   0.8691
Ce296     Ce     0.6648   0.115   0.8809
Er297     Er     0.3161   0.25   0.6839
V298     V     0.3516   0.2796   0.6468
V299     V     0.3532   0.2204   0.6484
V300     V     0.2796   0.1468   0.8516
Er301     Er     0.25   0.1839   0.8161
V302     V     0.2204   0.1484   0.8532
Ti303     Ti     0.2742   0.25   0.7258
Ti304     Ti     0.2258   0.2742   0.75
Ti305     Ti     0.25   0.2258   0.7742
V306     V     0.1484   0.3532   0.7204
Er307     Er     0.1839   0.3161   0.75
V308     V     0.1468   0.3516   0.7796
Ce309     Ce     0.385   0.1191   0.8352
Ce310     Ce     0.4148   0.1309   0.885
Ce311     Ce     0.365   0.1191   0.9148
Ce312     Ce     0.3352   0.1309   0.865
Er313     Er     0.9339   0.6839   0.5
V314     V     0.8968   0.6484   0.5296
V315     V     0.8984   0.6468   0.4704
V316     V     0.0296   0.8532   0.6016
Er317     Er     0.0   0.8161   0.5661
V318     V     0.9704   0.8516   0.6032
Ti319     Ti     0.9758   0.7258   0.5
Ti320     Ti     0.0242   0.75   0.4758
Ti321     Ti     0.0   0.7742   0.5242
V322     V     0.1016   0.7204   0.3968
Er323     Er     0.0661   0.75   0.4339
V324     V     0.1032   0.7796   0.3984
Ce325     Ce     0.1648   0.8691   0.635
Ce326     Ce     0.115   0.8809   0.6648
Ce327     Ce     0.135   0.8809   0.5852
Ce328     Ce     0.0852   0.8691   0.615
Er329     Er     0.9339   0.5   0.1839
V330     V     0.8968   0.5296   0.1484
V331     V     0.8984   0.4704   0.1468
Er332     Er     0.0661   0.4339   0.25
V333     V     0.1016   0.3968   0.2204
V334     V     0.1032   0.3984   0.2796
Ti335     Ti     0.9758   0.5   0.2258
Ti336     Ti     0.0242   0.4758   0.25
Ti337     Ti     0.0   0.5242   0.2742
Er338     Er     0.0   0.5661   0.3161
V339     V     0.9704   0.6032   0.3516
V340     V     0.0296   0.6016   0.3532
Ce341     Ce     0.0852   0.615   0.3691
Ce342     Ce     0.115   0.6648   0.3809
Ce343     Ce     0.135   0.5852   0.3809
Ce344     Ce     0.1648   0.635   0.3691
Er345     Er     0.6839   0.25   0.8161
V346     V     0.6468   0.2796   0.8516
V347     V     0.6484   0.2204   0.8532
Er348     Er     0.8161   0.1839   0.75
V349     V     0.8532   0.1484   0.7204
V350     V     0.8516   0.1468   0.7796
Ti351     Ti     0.75   0.2742   0.7258
Ti352     Ti     0.7258   0.25   0.7742
Ti353     Ti     0.7742   0.2258   0.75
Er354     Er     0.75   0.3161   0.6839
V355     V     0.7796   0.3516   0.6468
V356     V     0.7204   0.3532   0.6484
Ce357     Ce     0.6191   0.385   0.8352
Ce358     Ce     0.6309   0.3352   0.865
Ce359     Ce     0.6191   0.365   0.9148
Ce360     Ce     0.6309   0.4148   0.885
Ce361     Ce     0.1648   0.615   0.8809
Ce362     Ce     0.135   0.6648   0.8691
Ce363     Ce     0.115   0.5852   0.8691
Ce364     Ce     0.0852   0.635   0.8809
Er365     Er     0.9339   0.0661   0.25
V366     V     0.8968   0.1016   0.2204
V367     V     0.8984   0.1032   0.2796
V368     V     0.9704   0.8984   0.1468
Er369     Er     0.0   0.9339   0.1839
V370     V     0.0296   0.8968   0.1484
Ti371     Ti     0.0   0.9758   0.2258
Ti372     Ti     0.9758   0.0242   0.25
Ti373     Ti     0.0242   0.0   0.2742
V374     V     0.1016   0.0296   0.3532
Er375     Er     0.0661   0.0   0.3161
V376     V     0.1032   0.9704   0.3516
V377     V     0.9704   0.6468   0.8984
Er378     Er     0.0   0.6839   0.9339
V379     V     0.0296   0.6484   0.8968
V380     V     0.1032   0.8516   0.9704
Er381     Er     0.0661   0.8161   0.0
V382     V     0.1016   0.8532   0.0296
Ti383     Ti     0.0   0.7258   0.9758
Ti384     Ti     0.9758   0.75   0.0242
Ti385     Ti     0.0242   0.7742   0.0
Er386     Er     0.9339   0.75   0.0661
V387     V     0.8968   0.7204   0.1016
V388     V     0.8984   0.7796   0.1032
Ce389     Ce     0.135   0.8691   0.1648
Ce390     Ce     0.1648   0.8809   0.115
Ce391     Ce     0.115   0.8691   0.0852
Ce392     Ce     0.0852   0.8809   0.135
Er393     Er     0.9339   0.25   0.5661
V394     V     0.8968   0.2204   0.6016
V395     V     0.8984   0.2796   0.6032
V396     V     0.9704   0.1468   0.3984
Er397     Er     0.0   0.1839   0.4339
V398     V     0.0296   0.1484   0.3968
Ti399     Ti     0.9758   0.25   0.5242
Ti400     Ti     0.0242   0.2742   0.5
Ti401     Ti     0.0   0.2258   0.4758
V402     V     0.1016   0.3532   0.5296
Er403     Er     0.0661   0.3161   0.5
V404     V     0.1032   0.3516   0.4704
Ce405     Ce     0.135   0.1648   0.3691
Ce406     Ce     0.0852   0.135   0.3809
Ce407     Ce     0.1648   0.115   0.3809
Ce408     Ce     0.115   0.0852   0.3691
Ce409     Ce     0.8809   0.1648   0.615
Ce410     Ce     0.8691   0.135   0.6648
Ce411     Ce     0.8691   0.115   0.5852
Ce412     Ce     0.8809   0.0852   0.635
V413     V     0.1032   0.8984   0.7796
Er414     Er     0.0661   0.9339   0.75
V415     V     0.1016   0.8968   0.7204
V416     V     0.8984   0.9704   0.6468
Er417     Er     0.9339   0.0   0.6839
V418     V     0.8968   0.0296   0.6484
Ti419     Ti     0.9758   0.0   0.7258
Ti420     Ti     0.0242   0.9758   0.75
Ti421     Ti     0.0   0.0242   0.7742
V422     V     0.9704   0.1032   0.8516
Er423     Er     0.0   0.0661   0.8161
V424     V     0.0296   0.1016   0.8532
Ce425     Ce     0.135   0.0852   0.8809
Ce426     Ce     0.0852   0.115   0.8691
Ce427     Ce     0.115   0.1648   0.8809
Ce428     Ce     0.1648   0.135   0.8691
Er429     Er     0.6839   0.75   0.3161
V430     V     0.6468   0.7796   0.3516
V431     V     0.6484   0.7204   0.3532
Er432     Er     0.75   0.8161   0.1839
V433     V     0.7204   0.8532   0.1484
V434     V     0.7796   0.8516   0.1468
Ti435     Ti     0.7258   0.75   0.2742
Ti436     Ti     0.7742   0.7258   0.25
Ti437     Ti     0.75   0.7742   0.2258
Er438     Er     0.8161   0.6839   0.25
V439     V     0.8516   0.6468   0.2796
V440     V     0.8532   0.6484   0.2204
Er441     Er     0.75   0.4339   0.0661
V442     V     0.7796   0.3984   0.1032
V443     V     0.7204   0.3968   0.1016
V444     V     0.8532   0.6016   0.0296
Er445     Er     0.8161   0.5661   0.0
V446     V     0.8516   0.6032   0.9704
Ti447     Ti     0.7258   0.5   0.9758
Ti448     Ti     0.75   0.4758   0.0242
Ti449     Ti     0.7742   0.5242   0.0
Er450     Er     0.6839   0.5   0.9339
V451     V     0.6484   0.5296   0.8968
V452     V     0.6468   0.4704   0.8984
Ce453     Ce     0.8691   0.635   0.1648
Ce454     Ce     0.8809   0.6648   0.115
Ce455     Ce     0.8809   0.5852   0.135
Ce456     Ce     0.8691   0.615   0.0852
Er457     Er     0.5   0.1839   0.9339
V458     V     0.5296   0.1484   0.8968
V459     V     0.4704   0.1468   0.8984
Er460     Er     0.4339   0.25   0.0661
V461     V     0.3968   0.2204   0.1016
V462     V     0.3984   0.2796   0.1032
Ti463     Ti     0.5   0.2258   0.9758
Ti464     Ti     0.4758   0.25   0.0242
Ti465     Ti     0.5242   0.2742   0.0
Er466     Er     0.5661   0.3161   0.0
V467     V     0.6032   0.3516   0.9704
V468     V     0.6016   0.3532   0.0296
Ce469     Ce     0.5852   0.3809   0.135
Ce470     Ce     0.635   0.3691   0.1648
Ce471     Ce     0.615   0.3691   0.0852
Ce472     Ce     0.6648   0.3809   0.115
Er473     Er     0.6839   0.3161   0.25
V474     V     0.6468   0.3516   0.2796
V475     V     0.6484   0.3532   0.2204
V476     V     0.8516   0.2796   0.1468
Er477     Er     0.8161   0.25   0.1839
V478     V     0.8532   0.2204   0.1484
Ti479     Ti     0.7258   0.2742   0.25
Ti480     Ti     0.75   0.2258   0.2742
Ti481     Ti     0.7742   0.25   0.2258
V482     V     0.7204   0.1484   0.3532
Er483     Er     0.75   0.1839   0.3161
V484     V     0.7796   0.1468   0.3516
Ce485     Ce     0.615   0.8809   0.1648
Ce486     Ce     0.5852   0.8691   0.115
Ce487     Ce     0.635   0.8809   0.0852
Ce488     Ce     0.6648   0.8691   0.135
V489     V     0.6468   0.8984   0.9704
Er490     Er     0.6839   0.9339   0.0
V491     V     0.6484   0.8968   0.0296
Er492     Er     0.75   0.0661   0.9339
V493     V     0.7204   0.1016   0.8968
V494     V     0.7796   0.1032   0.8984
Ti495     Ti     0.7258   0.9758   0.0
Ti496     Ti     0.75   0.0242   0.9758
Ti497     Ti     0.7742   0.0   0.0242
V498     V     0.8516   0.9704   0.1032
Er499     Er     0.8161   0.0   0.0661
V500     V     0.8532   0.0296   0.1016
V501     V     0.8984   0.1468   0.9704
Er502     Er     0.9339   0.1839   0.0
V503     V     0.8968   0.1484   0.0296
Er504     Er     0.0661   0.25   0.9339
V505     V     0.1016   0.2204   0.8968
V506     V     0.1032   0.2796   0.8984
Ti507     Ti     0.9758   0.2258   0.0
Ti508     Ti     0.0242   0.25   0.9758
Ti509     Ti     0.0   0.2742   0.0242
V510     V     0.0296   0.3532   0.1016
Er511     Er     0.0   0.3161   0.0661
V512     V     0.9704   0.3516   0.1032
Ce513     Ce     0.8691   0.1648   0.135
Ce514     Ce     0.8809   0.115   0.1648
Ce515     Ce     0.8809   0.135   0.0852
Ce516     Ce     0.8691   0.0852   0.115
V517     V     0.2796   0.6032   0.8984
Er518     Er     0.25   0.5661   0.9339
V519     V     0.2204   0.6016   0.8968
V520     V     0.1468   0.3984   0.9704
Er521     Er     0.1839   0.4339   0.0
V522     V     0.1484   0.3968   0.0296
Ti523     Ti     0.25   0.5242   0.9758
Ti524     Ti     0.2258   0.4758   0.0
Ti525     Ti     0.2742   0.5   0.0242
V526     V     0.3532   0.5296   0.1016
Er527     Er     0.3161   0.5   0.0661
V528     V     0.3516   0.4704   0.1032
Ce529     Ce     0.135   0.3809   0.0852
Ce530     Ce     0.1648   0.3691   0.135
Ce531     Ce     0.0852   0.3691   0.115
Ce532     Ce     0.115   0.3809   0.1648
Er533     Er     0.25   0.9339   0.0661
V534     V     0.2204   0.8968   0.1016
V535     V     0.2796   0.8984   0.1032
V536     V     0.1468   0.9704   0.8984
Er537     Er     0.1839   0.0   0.9339
V538     V     0.1484   0.0296   0.8968
Ti539     Ti     0.2258   0.0   0.9758
Ti540     Ti     0.25   0.9758   0.0242
Ti541     Ti     0.2742   0.0242   0.0
V542     V     0.3532   0.1016   0.0296
Er543     Er     0.3161   0.0661   0.0
V544     V     0.3516   0.1032   0.9704
Er545     Er     0.4339   0.0   0.1839
V546     V     0.3968   0.0296   0.1484
V547     V     0.3984   0.9704   0.1468
Er548     Er     0.5661   0.9339   0.25
V549     V     0.6016   0.8968   0.2204
V550     V     0.6032   0.8984   0.2796
Ti551     Ti     0.5242   0.9758   0.25
Ti552     Ti     0.5   0.0242   0.2742
Ti553     Ti     0.4758   0.0   0.2258
V554     V     0.5296   0.1016   0.3532
Er555     Er     0.5   0.0661   0.3161
V556     V     0.4704   0.1032   0.3516
Ce557     Ce     0.3691   0.115   0.0852
Ce558     Ce     0.3809   0.1648   0.115
Ce559     Ce     0.3691   0.135   0.1648
Ce560     Ce     0.3809   0.0852   0.135
Er561     Er     0.25   0.8161   0.6839
V562     V     0.2796   0.8516   0.6468
V563     V     0.2204   0.8532   0.6484
Er564     Er     0.1839   0.75   0.8161
V565     V     0.1484   0.7204   0.8532
V566     V     0.1468   0.7796   0.8516
Ti567     Ti     0.2742   0.7258   0.75
Ti568     Ti     0.25   0.7742   0.7258
Ti569     Ti     0.2258   0.75   0.7742
Er570     Er     0.3161   0.6839   0.75
V571     V     0.3516   0.6468   0.7796
V572     V     0.3532   0.6484   0.7204
Ce573     Ce     0.385   0.8352   0.6191
Ce574     Ce     0.3352   0.865   0.6309
Ce575     Ce     0.365   0.9148   0.6191
Ce576     Ce     0.4148   0.885   0.6309
loop_
_geom_bond_atom_site_label_1
_geom_bond_atom_site_label_2
_geom_bond_distance
_geom_bond_site_symmetry_2
_ccdc_geom_bond_type
Ce1     Ce2    10.001   .     S
Ce1     V350    10.002   .     S
Ce1     Ce4    10.001   .     S
Ce2     Ce3    10.001   .     S
Ce2     V494    10.002   .     S
Ce3     Ce4    10.001   .     S
Ce3     V501    10.002   .     S
Ce4     V422    10.002   .     S
Ce5     Ce6    10.001   .     S
Ce5     V434    10.002   .     S
Ce5     Ce8    10.001   .     S
Ce6     Ce7    10.001   .     S
Ce6     V388    10.002   .     S
Ce7     Ce8    10.001   .     S
Ce7     V368    10.002   .     S
Ce8     V498    10.002   .     S
Ce9     Ce10    10.001   .     S
Ce9     V566    10.002   .     S
Ce9     Ce12    10.001   .     S
Ce10     Ce11    10.001   .     S
Ce10     V413    10.002   .     S
Ce11     Ce12    10.001   .     S
Ce11     V536    10.002   .     S
Ce12     V380    10.002   .     S
Ce13     Ce14    10.001   .     S
Ce13     V446    10.002   .     S
Ce13     Ce15    10.001   .     S
Ce14     Ce16    10.001   .     S
Ce14     V109    10.002   .     S
Ce15     V377    10.002   .     S
Ce15     Ce16    10.001   .     S
Ce16     V187    10.002   .     S
Ce17     Ce18    10.001   .     S
Ce17     V318    10.002   .     S
Ce17     Ce19    10.001   .     S
Ce18     Ce20    10.001   .     S
Ce18     V116    10.002   .     S
Ce19     V416    10.002   .     S
Ce19     Ce20    10.001   .     S
Ce20     V91    10.002   .     S
Ce21     Ce22    10.001   .     S
Ce21     V292    10.002   .     S
Ce21     Ce23    10.001   .     S
Ce22     Ce24    10.001   .     S
Ce22     V106    10.002   .     S
Ce23     V489    10.002   .     S
Ce23     Ce24    10.001   .     S
Ce24     V142    10.002   .     S
Ce25     Ce26    10.001   .     S
Ce25     V439    10.002   .     S
Ce25     Ce27    10.001   .     S
Ce26     Ce28    10.001   .     S
Ce26     V54    10.002   .     S
Ce27     V339    10.002   .     S
Ce27     Ce28    10.001   .     S
Ce28     V315    10.002   .     S
Ce29     Ce30    10.001   .     S
Ce29     V324    10.002   .     S
Ce29     Ce32    10.001   .     S
Ce30     Ce31    10.001   .     S
Ce30     V267    10.002   .     S
Ce31     Ce32    10.001   .     S
Ce31     V376    10.002   .     S
Ce32     V40    10.002   .     S
Ce33     Ce34    10.001   .     S
Ce33     V442    10.002   .     S
Ce33     Ce36    10.001   .     S
Ce34     Ce35    10.001   .     S
Ce34     V331    10.002   .     S
Ce35     Ce36    10.001   .     S
Ce35     V512    10.002   .     S
Ce36     V476    10.002   .     S
Er37     Ti43    9.998   .     S
Er37     V38    9.999   .     S
Er37     V39    9.999   .     S
V38     V39    10.0   .     S
V38     Ce167    10.002   .     S
V39     Ce344    10.002   .     S
V40     Er41    9.999   .     S
V40     V42    10.0   .     S
Er41     Ti45    9.998   .     S
Er41     V42    9.999   .     S
V42     Ce389    10.002   .     S
Ti43     Ti45    9.999   .     S
Ti43     Ti44    9.999   .     S
Ti44     Ti45    9.999   .     S
Ti44     Er47    9.998   .     S
V46     Er47    9.999   .     S
V46     V48    10.0   .     S
V46     Ce150    10.002   .     S
Er47     V48    9.999   .     S
V48     Ce134    10.002   .     S
V49     Er50    9.999   .     S
V49     V51    10.0   .     S
V49     Ce129    10.002   .     S
Er50     Ti57    9.998   .     S
Er50     V51    9.999   .     S
V51     Ce264    10.002   .     S
V52     Er53    9.999   .     S
V52     V54    10.0   .     S
V52     Ce62    10.002   .     S
Er53     Ti56    9.998   .     S
Er53     V54    9.999   .     S
Ti55     Ti57    9.999   .     S
Ti55     Ti56    9.999   .     S
Ti55     Er58    9.998   .     S
Ti56     Ti57    9.999   .     S
Er58     V59    9.999   .     S
Er58     V60    9.999   .     S
V59     V60    10.0   .     S
V59     Ce222    10.002   .     S
V60     Ce68    10.002   .     S
Ce61     Ce62    10.001   .     S
Ce61     V431    10.002   .     S
Ce61     Ce64    10.001   .     S
Ce62     Ce63    10.001   .     S
Ce63     Ce64    10.001   .     S
Ce63     V155    10.002   .     S
Ce64     V247    10.002   .     S
Ce65     Ce67    10.001   .     S
Ce65     V72    10.002   .     S
Ce65     Ce66    10.001   .     S
Ce66     V356    10.002   .     S
Ce66     Ce68    10.001   .     S
Ce67     Ce68    10.001   .     S
Ce67     V220    10.002   .     S
Er69     Ti75    9.998   .     S
Er69     V70    9.999   .     S
Er69     V71    9.999   .     S
V70     V71    10.0   .     S
V70     Ce206    10.002   .     S
V71     Ce244    10.002   .     S
V72     Er73    9.999   .     S
V72     V74    10.0   .     S
Er73     Ti76    9.998   .     S
Er73     V74    9.999   .     S
V74     Ce357    10.002   .     S
Ti75     Ti77    9.999   .     S
Ti75     Ti76    9.999   .     S
Ti76     Ti77    9.999   .     S
Ti77     Er79    9.998   .     S
V78     Er79    9.999   .     S
V78     V80    10.0   .     S
V78     Ce125    10.002   .     S
Er79     V80    9.999   .     S
V80     Ce84    10.002   .     S
Ce81     Ce82    10.001   .     S
Ce81     V571    10.002   .     S
Ce81     Ce84    10.001   .     S
Ce82     Ce83    10.001   .     S
Ce82     V517    10.002   .     S
Ce83     Ce84    10.001   .     S
Ce83     V148    10.002   .     S
Ce85     Ce87    10.001   .     S
Ce85     V254    10.002   .     S
Ce85     Ce86    10.001   .     S
Ce86     V90    10.002   .     S
Ce86     Ce88    10.001   .     S
Ce87     Ce88    10.001   .     S
Ce87     V285    10.002   .     S
Ce88     V107    10.002   .     S
Er89     Ti95    9.998   .     S
Er89     V90    9.999   .     S
Er89     V91    9.999   .     S
V90     V91    10.0   .     S
V92     Er93    9.999   .     S
V92     V94    10.0   1_545     S
V92     Ce201    10.002   .     S
Er93     Ti96    9.998   .     S
Er93     V94    9.999   1_545     S
V94     V92    10.0   1_565     S
V94     Er93    9.999   1_565     S
V94     Ce259    10.002   .     S
Ti95     Ti96    9.999   1_565     S
Ti95     Ti97    9.999   1_565     S
Ti96     Ti95    9.999   1_545     S
Ti96     Ti97    9.999   .     S
Ti97     Ti95    9.999   1_545     S
Ti97     Er99    9.998   .     S
V98     Er99    9.999   .     S
V98     V100    10.0   .     S
V98     Ce101    10.002   .     S
Er99     V100    9.999   .     S
V100     Ce411    10.002   .     S
Ce101     Ce102    10.001   .     S
Ce101     Ce103    10.001   .     S
Ce102     Ce104    10.001   .     S
Ce102     V484    10.002   .     S
Ce103     V396    10.002   .     S
Ce103     Ce104    10.001   .     S
Ce104     V367    10.002   .     S
Er105     Ti113    9.998   .     S
Er105     V106    9.999   .     S
Er105     V107    9.999   .     S
V106     V107    10.0   .     S
Er108     Ti111    9.998   .     S
Er108     V109    9.999   .     S
Er108     V110    9.999   .     S
V109     V110    10.0   .     S
V110     Ce128    10.002   .     S
Ti111     Ti112    9.999   .     S
Ti111     Ti113    9.999   .     S
Ti112     Ti113    9.999   .     S
Ti112     Er115    9.998   .     S
V114     Er115    9.999   .     S
V114     V116    10.0   .     S
V114     Ce132    10.002   .     S
Er115     V116    9.999   .     S
Ce117     Ce119    10.001   .     S
Ce117     V225    10.002   .     S
Ce117     Ce118    10.001   .     S
Ce118     V556    10.002   .     S
Ce118     Ce120    10.001   .     S
Ce119     Ce120    10.001   .     S
Ce119     V270    10.002   .     S
Ce120     V211    10.002   .     S
Ce121     Ce123    10.001   .     S
Ce121     V158    10.002   .     S
Ce121     Ce122    10.001   .     S
Ce122     V462    10.002   .     S
Ce122     Ce124    10.001   .     S
Ce123     Ce124    10.001   .     S
Ce123     V528    10.002   .     S
Ce124     V230    10.002   .     S
Ce125     Ce127    10.001   .     S
Ce125     Ce126    10.001   .     S
Ce126     V141    10.002   .     S
Ce126     Ce128    10.001   .     S
Ce127     Ce128    10.001   .     S
Ce127     V451    10.002   .     S
Ce129     Ce131    10.001   .     S
Ce129     Ce130    10.001   .     S
Ce130     V186    10.002   .     S
Ce130     Ce132    10.001   .     S
Ce131     Ce132    10.001   .     S
Ce131     V314    10.002   .     S
Ce133     Ce135    10.001   .     S
Ce133     V535    10.002   .     S
Ce133     Ce134    10.001   .     S
Ce134     Ce136    10.001   .     S
Ce135     Ce136    10.001   .     S
Ce135     V547    10.002   .     S
Ce136     V139    10.002   .     S
Er137     Ti145    9.998   .     S
Er137     V138    9.999   .     S
Er137     V139    9.999   .     S
V138     V139    10.0   .     S
V138     Ce486    10.002   .     S
Er140     Ti143    9.998   .     S
Er140     V141    9.999   .     S
Er140     V142    9.999   .     S
V141     V142    10.0   .     S
Ti143     Ti145    9.999   1_556     S
Ti143     Ti144    9.999   1_556     S
Ti144     Ti143    9.999   1_554     S
Ti144     Ti145    9.999   .     S
Ti144     Er147    9.998   .     S
Ti145     Ti143    9.999   1_554     S
V146     Er147    9.999   .     S
V146     V148    10.0   1_554     S
V146     Ce149    10.002   .     S
Er147     V148    9.999   1_554     S
V148     V146    10.0   1_556     S
V148     Er147    9.999   1_556     S
Ce149     Ce150    10.001   .     S
Ce149     Ce151    10.001   .     S
Ce150     Ce152    10.001   .     S
Ce151     V526    10.002   .     S
Ce151     Ce152    10.001   .     S
Ce152     V162    10.002   .     S
Er153     Ti159    9.998   .     S
Er153     V154    9.999   .     S
Er153     V155    9.999   .     S
V154     V155    10.0   .     S
V154     Ce224    10.002   .     S
Er156     Ti160    9.998   .     S
Er156     V157    9.999   .     S
Er156     V158    9.999   .     S
V157     V158    10.0   .     S
V157     Ce469    10.002   .     S
Ti159     Ti160    9.999   .     S
Ti159     Ti161    9.999   .     S
Ti160     Ti161    9.999   .     S
Ti161     Er163    9.998   .     S
V162     Er163    9.999   .     S
V162     V164    10.0   .     S
Er163     V164    9.999   .     S
V164     Ce168    10.002   .     S
Ce165     Ce167    10.001   .     S
Ce165     V179    10.002   .     S
Ce165     Ce166    10.001   .     S
Ce166     V246    10.002   .     S
Ce166     Ce168    10.001   .     S
Ce167     Ce168    10.001   .     S
V169     Er170    9.999   .     S
V169     V171    10.0   .     S
V169     Ce200    10.002   .     S
Er170     Ti177    9.998   .     S
Er170     V171    9.999   .     S
V171     Ce205    10.002   .     S
Er172     Ti176    9.998   .     S
Er172     V173    9.999   .     S
Er172     V174    9.999   .     S
V173     V174    10.0   .     S
V173     Ce343    10.002   .     S
V174     Ce240    10.002   .     S
Ti175     Ti176    9.999   .     S
Ti175     Ti177    9.999   .     S
Ti175     Er178    9.998   .     S
Ti176     Ti177    9.999   .     S
Er178     V179    9.999   .     S
Er178     V180    9.999   .     S
V179     V180    10.0   .     S
V180     Ce243    10.002   .     S
Ce181     Ce182    10.001   .     S
Ce181     V190    10.002   .     S
Ce181     Ce183    10.001   .     S
Ce182     Ce184    10.001   .     S
Ce182     V308    10.002   .     S
Ce183     V520    10.002   .     S
Ce183     Ce184    10.001   .     S
Ce184     V506    10.002   .     S
Er185     Ti191    9.998   .     S
Er185     V186    9.999   .     S
Er185     V187    9.999   .     S
V186     V187    10.0   .     S
Er188     Ti193    9.998   .     S
Er188     V189    9.999   .     S
Er188     V190    9.999   .     S
V189     V190    10.0   .     S
V189     Ce363    10.002   .     S
Ti191     Ti192    9.999   1_655     S
Ti191     Ti193    9.999   1_655     S
Ti192     Ti193    9.999   .     S
Ti192     Ti191    9.999   1_455     S
Ti192     Er195    9.998   .     S
Ti193     Ti191    9.999   1_455     S
V194     Er195    9.999   .     S
V194     V196    10.0   1_455     S
V194     Ce197    10.002   .     S
Er195     V196    9.999   1_455     S
V196     V194    10.0   1_655     S
V196     Er195    9.999   1_655     S
V196     Ce263    10.002   .     S
Ce197     Ce198    10.001   .     S
Ce197     Ce199    10.001   .     S
Ce198     Ce200    10.001   .     S
Ce198     V306    10.002   .     S
Ce199     V402    10.002   .     S
Ce199     Ce200    10.001   .     S
Ce201     Ce202    10.001   .     S
Ce201     Ce203    10.001   .     S
Ce202     Ce204    10.001   .     S
Ce202     V482    10.002   .     S
Ce203     V554    10.002   .     S
Ce203     Ce204    10.001   .     S
Ce204     V212    10.002   .     S
Ce205     Ce206    10.001   .     S
Ce205     Ce207    10.001   .     S
Ce206     Ce208    10.001   .     S
Ce207     V298    10.002   .     S
Ce207     Ce208    10.001   .     S
Ce208     V219    10.002   .     S
Er209     Ti215    9.998   .     S
Er209     V210    9.999   .     S
Er209     V211    9.999   .     S
V210     V211    10.0   .     S
V210     Ce278    10.002   .     S
V212     Er213    9.999   .     S
V212     V214    10.0   .     S
Er213     Ti217    9.998   .     S
Er213     V214    9.999   .     S
V214     Ce221    10.002   .     S
Ti215     Ti216    9.999   .     S
Ti215     Ti217    9.999   .     S
Ti216     Ti217    9.999   .     S
Ti216     Er218    9.998   .     S
Er218     V219    9.999   .     S
Er218     V220    9.999   .     S
V219     V220    10.0   .     S
Ce221     Ce222    10.001   .     S
Ce221     Ce223    10.001   .     S
Ce222     Ce224    10.001   .     S
Ce223     V474    10.002   .     S
Ce223     Ce224    10.001   .     S
V225     Er226    9.999   .     S
V225     V227    10.0   .     S
Er226     Ti232    9.998   .     S
Er226     V227    9.999   .     S
V227     Ce559    10.002   .     S
V228     Er229    9.999   .     S
V228     V230    10.0   .     S
V228     Ce530    10.002   .     S
Er229     Ti233    9.998   .     S
Er229     V230    9.999   .     S
Ti231     Ti232    9.999   .     S
Ti231     Ti233    9.999   .     S
Ti231     Er235    9.998   .     S
Ti232     Ti233    9.999   .     S
V234     Er235    9.999   .     S
V234     V236    10.0   .     S
V234     Ce238    10.002   .     S
Er235     V236    9.999   .     S
V236     Ce405    10.002   .     S
Ce237     Ce238    10.001   .     S
Ce237     V404    10.002   .     S
Ce237     Ce240    10.001   .     S
Ce238     Ce239    10.001   .     S
Ce239     Ce240    10.001   .     S
Ce239     V334    10.002   .     S
Ce241     Ce242    10.001   .     S
Ce241     V572    10.002   .     S
Ce241     Ce244    10.001   .     S
Ce242     Ce243    10.001   .     S
Ce242     V250    10.002   .     S
Ce243     Ce244    10.001   .     S
Er245     Ti251    9.998   .     S
Er245     V246    9.999   .     S
Er245     V247    9.999   .     S
V246     V247    10.0   .     S
V248     Er249    9.999   .     S
V248     V250    10.0   .     S
V248     Ce573    10.002   .     S
Er249     Ti252    9.998   .     S
Er249     V250    9.999   .     S
Ti251     Ti252    9.999   .     S
Ti251     Ti253    9.999   .     S
Ti252     Ti253    9.999   .     S
Ti253     Er255    9.998   .     S
V254     Er255    9.999   .     S
V254     V256    10.0   .     S
Er255     V256    9.999   .     S
V256     Ce260    10.002   .     S
Ce257     Ce258    10.001   .     S
Ce257     V430    10.002   .     S
Ce257     Ce260    10.001   .     S
Ce258     Ce259    10.001   .     S
Ce258     V550    10.002   .     S
Ce259     Ce260    10.001   .     S
Ce261     Ce262    10.001   .     S
Ce261     V355    10.002   .     S
Ce261     Ce264    10.001   .     S
Ce262     Ce263    10.001   .     S
Ce262     V395    10.002   .     S
Ce263     Ce264    10.001   .     S
Er265     Ti271    9.998   .     S
Er265     V266    9.999   .     S
Er265     V267    9.999   .     S
V266     V267    10.0   .     S
V266     Ce327    10.002   .     S
Er268     Ti273    9.998   .     S
Er268     V269    9.999   .     S
Er268     V270    9.999   .     S
V269     V270    10.0   .     S
V269     Ce407    10.002   .     S
Ti271     Ti272    9.999   1_565     S
Ti271     Ti273    9.999   1_565     S
Ti272     Ti273    9.999   .     S
Ti272     Ti271    9.999   1_545     S
Ti272     Er274    9.998   .     S
Ti273     Ti271    9.999   1_545     S
Er274     V275    9.999   1_545     S
Er274     V276    9.999   .     S
V275     Er274    9.999   1_565     S
V275     V276    10.0   1_565     S
V275     Ce575    10.002   .     S
V276     V275    10.0   1_545     S
V276     Ce277    10.002   .     S
Ce277     Ce278    10.001   .     S
Ce277     Ce280    10.001   .     S
Ce278     Ce279    10.001   .     S
Ce279     Ce280    10.001   .     S
Ce279     V299    10.002   .     S
Ce280     V283    10.002   .     S
Er281     Ti288    9.998   .     S
Er281     V282    9.999   .     S
Er281     V283    9.999   .     S
V282     V283    10.0   .     S
V282     Ce309    10.002   .     S
Er284     Ti287    9.998   .     S
Er284     V285    9.999   .     S
Er284     V286    9.999   .     S
V285     V286    10.0   .     S
V286     Ce576    10.002   .     S
Ti287     Ti289    9.999   1_565     S
Ti287     Ti288    9.999   1_565     S
Ti288     Ti289    9.999   .     S
Ti288     Ti287    9.999   1_545     S
Ti289     Ti287    9.999   1_545     S
Ti289     Er291    9.998   .     S
V290     Er291    9.999   .     S
V290     V292    10.0   1_545     S
V290     Ce294    10.002   .     S
Er291     V292    9.999   1_545     S
V292     Er291    9.999   1_565     S
V292     V290    10.0   1_565     S
Ce293     Ce295    10.001   .     S
Ce293     V458    10.002   .     S
Ce293     Ce294    10.001   .     S
Ce294     Ce296    10.001   .     S
Ce295     Ce296    10.001   .     S
Ce295     V347    10.002   .     S
Ce296     V493    10.002   .     S
Er297     Ti303    9.998   .     S
Er297     V298    9.999   .     S
Er297     V299    9.999   .     S
V298     V299    10.0   .     S
V300     Er301    9.999   .     S
V300     V302    10.0   .     S
V300     Ce312    10.002   .     S
Er301     Ti305    9.998   .     S
Er301     V302    9.999   .     S
V302     Ce428    10.002   .     S
Ti303     Ti305    9.999   .     S
Ti303     Ti304    9.999   .     S
Ti304     Ti305    9.999   .     S
Ti304     Er307    9.998   .     S
V306     Er307    9.999   .     S
V306     V308    10.0   .     S
Er307     V308    9.999   .     S
Ce309     Ce310    10.001   .     S
Ce309     Ce312    10.001   .     S
Ce310     Ce311    10.001   .     S
Ce310     V459    10.002   .     S
Ce311     Ce312    10.001   .     S
Ce311     V544    10.002   .     S
Er313     Ti319    9.998   .     S
Er313     V314    9.999   .     S
Er313     V315    9.999   .     S
V314     V315    10.0   .     S
V316     Er317    9.999   .     S
V316     V318    10.0   1_455     S
V316     Ce328    10.002   .     S
Er317     Ti321    9.998   .     S
Er317     V318    9.999   1_455     S
V318     Er317    9.999   1_655     S
V318     V316    10.0   1_655     S
Ti319     Ti321    9.999   1_655     S
Ti319     Ti320    9.999   1_655     S
Ti320     Ti321    9.999   .     S
Ti320     Ti319    9.999   1_455     S
Ti320     Er323    9.998   .     S
Ti321     Ti319    9.999   1_455     S
V322     Er323    9.999   .     S
V322     V324    10.0   .     S
V322     Ce342    10.002   .     S
Er323     V324    9.999   .     S
Ce325     Ce326    10.001   .     S
Ce325     V563    10.002   .     S
Ce325     Ce327    10.001   .     S
Ce326     Ce328    10.001   .     S
Ce326     V415    10.002   .     S
Ce327     Ce328    10.001   .     S
Er329     Ti335    9.998   .     S
Er329     V330    9.999   .     S
Er329     V331    9.999   .     S
V330     V331    10.0   .     S
V330     Ce455    10.002   .     S
Er332     Ti336    9.998   .     S
Er332     V333    9.999   .     S
Er332     V334    9.999   .     S
V333     V334    10.0   .     S
V333     Ce532    10.002   .     S
Ti335     Ti337    9.999   1_655     S
Ti335     Ti336    9.999   1_655     S
Ti336     Ti337    9.999   .     S
Ti336     Ti335    9.999   1_455     S
Ti337     Ti335    9.999   1_455     S
Ti337     Er338    9.998   .     S
Er338     V339    9.999   1_455     S
Er338     V340    9.999   .     S
V339     Er338    9.999   1_655     S
V339     V340    10.0   1_655     S
V340     V339    10.0   1_455     S
V340     Ce341    10.002   .     S
Ce341     Ce343    10.001   .     S
Ce341     Ce342    10.001   .     S
Ce342     Ce344    10.001   .     S
Ce343     Ce344    10.001   .     S
Er345     Ti352    9.998   .     S
Er345     V346    9.999   .     S
Er345     V347    9.999   .     S
V346     V347    10.0   .     S
V346     Ce358    10.002   .     S
Er348     Ti353    9.998   .     S
Er348     V349    9.999   .     S
Er348     V350    9.999   .     S
V349     V350    10.0   .     S
V349     Ce410    10.002   .     S
Ti351     Ti353    9.999   .     S
Ti351     Ti352    9.999   .     S
Ti351     Er354    9.998   .     S
Ti352     Ti353    9.999   .     S
Er354     V355    9.999   .     S
Er354     V356    9.999   .     S
V355     V356    10.0   .     S
Ce357     Ce360    10.001   .     S
Ce357     Ce358    10.001   .     S
Ce358     Ce359    10.001   .     S
Ce359     V467    10.002   .     S
Ce359     Ce360    10.001   .     S
Ce360     V452    10.002   .     S
Ce361     Ce363    10.001   .     S
Ce361     V519    10.002   .     S
Ce361     Ce362    10.001   .     S
Ce362     V565    10.002   .     S
Ce362     Ce364    10.001   .     S
Ce363     Ce364    10.001   .     S
Ce364     V379    10.002   .     S
Er365     Ti372    9.998   .     S
Er365     V366    9.999   .     S
Er365     V367    9.999   .     S
V366     V367    10.0   .     S
V366     Ce514    10.002   .     S
V368     Er369    9.999   1_655     S
V368     V370    10.0   1_655     S
Er369     V368    9.999   1_455     S
Er369     Ti371    9.998   .     S
Er369     V370    9.999   .     S
V370     V368    10.0   1_455     S
V370     Ce392    10.002   .     S
Ti371     Ti372    9.999   1_465     S
Ti371     Ti373    9.999   1_565     S
Ti372     Ti371    9.999   1_645     S
Ti372     Ti373    9.999   1_655     S
Ti373     Ti371    9.999   1_545     S
Ti373     Ti372    9.999   1_455     S
Ti373     Er375    9.998   .     S
V374     Er375    9.999   .     S
V374     V376    10.0   1_545     S
V374     Ce408    10.002   .     S
Er375     V376    9.999   1_545     S
V376     Er375    9.999   1_565     S
V376     V374    10.0   1_565     S
V377     Er378    9.999   1_655     S
V377     V379    10.0   1_655     S
Er378     V377    9.999   1_455     S
Er378     Ti383    9.998   .     S
Er378     V379    9.999   .     S
V379     V377    10.0   1_455     S
V380     Er381    9.999   1_556     S
V380     V382    10.0   1_556     S
Er381     V380    9.999   1_554     S
Er381     Ti385    9.998   .     S
Er381     V382    9.999   .     S
V382     V380    10.0   1_554     S
V382     Ce391    10.002   .     S
Ti383     Ti384    9.999   1_456     S
Ti383     Ti385    9.999   1_556     S
Ti384     Ti383    9.999   1_654     S
Ti384     Ti385    9.999   1_655     S
Ti384     Er386    9.998   .     S
Ti385     Ti383    9.999   1_554     S
Ti385     Ti384    9.999   1_455     S
Er386     V387    9.999   .     S
Er386     V388    9.999   .     S
V387     V388    10.0   .     S
V387     Ce454    10.002   .     S
Ce389     Ce390    10.001   .     S
Ce389     Ce392    10.001   .     S
Ce390     Ce391    10.001   .     S
Ce390     V534    10.002   .     S
Ce391     Ce392    10.001   .     S
Er393     Ti399    9.998   .     S
Er393     V394    9.999   .     S
Er393     V395    9.999   .     S
V394     V395    10.0   .     S
V394     Ce409    10.002   .     S
V396     Er397    9.999   1_655     S
V396     V398    10.0   1_655     S
Er397     V396    9.999   1_455     S
Er397     Ti401    9.998   .     S
Er397     V398    9.999   .     S
V398     V396    10.0   1_455     S
V398     Ce406    10.002   .     S
Ti399     Ti401    9.999   1_655     S
Ti399     Ti400    9.999   1_655     S
Ti400     Ti401    9.999   .     S
Ti400     Ti399    9.999   1_455     S
Ti400     Er403    9.998   .     S
Ti401     Ti399    9.999   1_455     S
V402     Er403    9.999   .     S
V402     V404    10.0   .     S
Er403     V404    9.999   .     S
Ce405     Ce407    10.001   .     S
Ce405     Ce406    10.001   .     S
Ce406     Ce408    10.001   .     S
Ce407     Ce408    10.001   .     S
Ce409     Ce411    10.001   .     S
Ce409     Ce410    10.001   .     S
Ce410     Ce412    10.001   .     S
Ce411     Ce412    10.001   .     S
Ce412     V418    10.002   .     S
V413     Er414    9.999   .     S
V413     V415    10.0   .     S
Er414     Ti420    9.998   .     S
Er414     V415    9.999   .     S
V416     Er417    9.999   1_565     S
V416     V418    10.0   1_565     S
Er417     V416    9.999   1_545     S
Er417     Ti419    9.998   .     S
Er417     V418    9.999   .     S
V418     V416    10.0   1_545     S
Ti419     Ti420    9.999   1_645     S
Ti419     Ti421    9.999   1_655     S
Ti420     Ti419    9.999   1_465     S
Ti420     Ti421    9.999   1_565     S
Ti421     Ti419    9.999   1_455     S
Ti421     Ti420    9.999   1_545     S
Ti421     Er423    9.998   .     S
V422     Er423    9.999   1_655     S
V422     V424    10.0   1_655     S
Er423     V422    9.999   1_455     S
Er423     V424    9.999   .     S
V424     V422    10.0   1_455     S
V424     Ce426    10.002   .     S
Ce425     Ce428    10.001   .     S
Ce425     V538    10.002   .     S
Ce425     Ce426    10.001   .     S
Ce426     Ce427    10.001   .     S
Ce427     V505    10.002   .     S
Ce427     Ce428    10.001   .     S
Er429     Ti435    9.998   .     S
Er429     V430    9.999   .     S
Er429     V431    9.999   .     S
V430     V431    10.0   .     S
Er432     Ti437    9.998   .     S
Er432     V433    9.999   .     S
Er432     V434    9.999   .     S
V433     V434    10.0   .     S
V433     Ce488    10.002   .     S
Ti435     Ti437    9.999   .     S
Ti435     Ti436    9.999   .     S
Ti436     Ti437    9.999   .     S
Ti436     Er438    9.998   .     S
Er438     V439    9.999   .     S
Er438     V440    9.999   .     S
V439     V440    10.0   .     S
V440     Ce453    10.002   .     S
Er441     Ti448    9.998   .     S
Er441     V442    9.999   .     S
Er441     V443    9.999   .     S
V442     V443    10.0   .     S
V443     Ce472    10.002   .     S
V444     Er445    9.999   .     S
V444     V446    10.0   1_554     S
V444     Ce456    10.002   .     S
Er445     Ti449    9.998   .     S
Er445     V446    9.999   1_554     S
V446     Er445    9.999   1_556     S
V446     V444    10.0   1_556     S
Ti447     Ti449    9.999   1_556     S
Ti447     Ti448    9.999   1_556     S
Ti447     Er450    9.998   .     S
Ti448     Ti447    9.999   1_554     S
Ti448     Ti449    9.999   .     S
Ti449     Ti447    9.999   1_554     S
Er450     V451    9.999   .     S
Er450     V452    9.999   .     S
V451     V452    10.0   .     S
Ce453     Ce454    10.001   .     S
Ce453     Ce455    10.001   .     S
Ce454     Ce456    10.001   .     S
Ce455     Ce456    10.001   .     S
Er457     Ti463    9.998   .     S
Er457     V458    9.999   .     S
Er457     V459    9.999   .     S
V458     V459    10.0   .     S
Er460     Ti464    9.998   .     S
Er460     V461    9.999   .     S
Er460     V462    9.999   .     S
V461     V462    10.0   .     S
V461     Ce558    10.002   .     S
Ti463     Ti464    9.999   1_556     S
Ti463     Ti465    9.999   1_556     S
Ti464     Ti463    9.999   1_554     S
Ti464     Ti465    9.999   .     S
Ti465     Ti463    9.999   1_554     S
Ti465     Er466    9.998   .     S
Er466     V467    9.999   1_554     S
Er466     V468    9.999   .     S
V467     Er466    9.999   1_556     S
V467     V468    10.0   1_556     S
V468     V467    10.0   1_554     S
V468     Ce471    10.002   .     S
Ce469     Ce470    10.001   .     S
Ce469     Ce471    10.001   .     S
Ce470     Ce472    10.001   .     S
Ce470     V475    10.002   .     S
Ce471     Ce472    10.001   .     S
Er473     Ti479    9.998   .     S
Er473     V474    9.999   .     S
Er473     V475    9.999   .     S
V474     V475    10.0   .     S
V476     Er477    9.999   .     S
V476     V478    10.0   .     S
Er477     Ti481    9.998   .     S
Er477     V478    9.999   .     S
V478     Ce513    10.002   .     S
Ti479     Ti481    9.999   .     S
Ti479     Ti480    9.999   .     S
Ti480     Ti481    9.999   .     S
Ti480     Er483    9.998   .     S
V482     Er483    9.999   .     S
V482     V484    10.0   .     S
Er483     V484    9.999   .     S
Ce485     Ce486    10.001   .     S
Ce485     V549    10.002   .     S
Ce485     Ce488    10.001   .     S
Ce486     Ce487    10.001   .     S
Ce487     Ce488    10.001   .     S
Ce487     V491    10.002   .     S
V489     Er490    9.999   1_556     S
V489     V491    10.0   1_556     S
Er490     V489    9.999   1_554     S
Er490     Ti495    9.998   .     S
Er490     V491    9.999   .     S
V491     V489    10.0   1_554     S
Er492     Ti496    9.998   .     S
Er492     V493    9.999   .     S
Er492     V494    9.999   .     S
V493     V494    10.0   .     S
Ti495     Ti496    9.999   1_564     S
Ti495     Ti497    9.999   1_565     S
Ti496     Ti495    9.999   1_546     S
Ti496     Ti497    9.999   1_556     S
Ti497     Ti495    9.999   1_545     S
Ti497     Ti496    9.999   1_554     S
Ti497     Er499    9.998   .     S
V498     Er499    9.999   1_565     S
V498     V500    10.0   1_565     S
Er499     V498    9.999   1_545     S
Er499     V500    9.999   .     S
V500     V498    10.0   1_545     S
V500     Ce516    10.002   .     S
V501     Er502    9.999   1_556     S
V501     V503    10.0   1_556     S
Er502     V501    9.999   1_554     S
Er502     Ti507    9.998   .     S
Er502     V503    9.999   .     S
V503     V501    10.0   1_554     S
V503     Ce515    10.002   .     S
Er504     Ti508    9.998   .     S
Er504     V505    9.999   .     S
Er504     V506    9.999   .     S
V505     V506    10.0   .     S
Ti507     Ti508    9.999   1_654     S
Ti507     Ti509    9.999   1_655     S
Ti508     Ti507    9.999   1_456     S
Ti508     Ti509    9.999   1_556     S
Ti509     Ti507    9.999   1_455     S
Ti509     Ti508    9.999   1_554     S
Ti509     Er511    9.998   .     S
V510     Er511    9.999   .     S
V510     V512    10.0   1_455     S
V510     Ce531    10.002   .     S
Er511     V512    9.999   1_455     S
V512     Er511    9.999   1_655     S
V512     V510    10.0   1_655     S
Ce513     Ce514    10.001   .     S
Ce513     Ce515    10.001   .     S
Ce514     Ce516    10.001   .     S
Ce515     Ce516    10.001   .     S
V517     Er518    9.999   .     S
V517     V519    10.0   .     S
Er518     Ti523    9.998   .     S
Er518     V519    9.999   .     S
V520     Er521    9.999   1_556     S
V520     V522    10.0   1_556     S
Er521     V520    9.999   1_554     S
Er521     Ti524    9.998   .     S
Er521     V522    9.999   .     S
V522     V520    10.0   1_554     S
V522     Ce529    10.002   .     S
Ti523     Ti524    9.999   1_556     S
Ti523     Ti525    9.999   1_556     S
Ti524     Ti523    9.999   1_554     S
Ti524     Ti525    9.999   .     S
Ti525     Ti523    9.999   1_554     S
Ti525     Er527    9.998   .     S
V526     Er527    9.999   .     S
V526     V528    10.0   .     S
Er527     V528    9.999   .     S
Ce529     Ce530    10.001   .     S
Ce529     Ce531    10.001   .     S
Ce530     Ce532    10.001   .     S
Ce531     Ce532    10.001   .     S
Er533     Ti540    9.998   .     S
Er533     V534    9.999   .     S
Er533     V535    9.999   .     S
V534     V535    10.0   .     S
V536     Er537    9.999   1_565     S
V536     V538    10.0   1_565     S
Er537     V536    9.999   1_545     S
Er537     Ti539    9.998   .     S
Er537     V538    9.999   .     S
V538     V536    10.0   1_545     S
Ti539     Ti541    9.999   1_556     S
Ti539     Ti540    9.999   1_546     S
Ti540     Ti539    9.999   1_564     S
Ti540     Ti541    9.999   1_565     S
Ti541     Ti539    9.999   1_554     S
Ti541     Ti540    9.999   1_545     S
Ti541     Er543    9.998   .     S
V542     Er543    9.999   .     S
V542     V544    10.0   1_554     S
V542     Ce557    10.002   .     S
Er543     V544    9.999   1_554     S
V544     Er543    9.999   1_556     S
V544     V542    10.0   1_556     S
Er545     Ti553    9.998   .     S
Er545     V546    9.999   .     S
Er545     V547    9.999   1_545     S
V546     V547    10.0   1_545     S
V546     Ce560    10.002   .     S
V547     Er545    9.999   1_565     S
V547     V546    10.0   1_565     S
Er548     Ti551    9.998   .     S
Er548     V549    9.999   .     S
Er548     V550    9.999   .     S
V549     V550    10.0   .     S
Ti551     Ti553    9.999   1_565     S
Ti551     Ti552    9.999   1_565     S
Ti552     Ti553    9.999   .     S
Ti552     Ti551    9.999   1_545     S
Ti552     Er555    9.998   .     S
Ti553     Ti551    9.999   1_545     S
V554     Er555    9.999   .     S
V554     V556    10.0   .     S
Er555     V556    9.999   .     S
Ce557     Ce560    10.001   .     S
Ce557     Ce558    10.001   .     S
Ce558     Ce559    10.001   .     S
Ce559     Ce560    10.001   .     S
Er561     Ti568    9.998   .     S
Er561     V562    9.999   .     S
Er561     V563    9.999   .     S
V562     V563    10.0   .     S
V562     Ce574    10.002   .     S
Er564     Ti569    9.998   .     S
Er564     V565    9.999   .     S
Er564     V566    9.999   .     S
V565     V566    10.0   .     S
Ti567     Ti569    9.999   .     S
Ti567     Ti568    9.999   .     S
Ti567     Er570    9.998   .     S
Ti568     Ti569    9.999   .     S
Er570     V571    9.999   .     S
Er570     V572    9.999   .     S
V571     V572    10.0   .     S
Ce573     Ce576    10.001   .     S
Ce573     Ce574    10.001   .     S
Ce574     Ce575    10.001   .     S
Ce575     Ce576    10.001   .     S
