data_ech
_audit_creation_date              2020-02-04
_audit_creation_method            'Pymatgen'
_symmetry_space_group_name_H-M    'P1'
_symmetry_Int_Tables_number       1
loop_
_symmetry_equiv_pos_as_xyz
  x,y,z
_cell_length_a                    28.2843
_cell_length_b                    28.2843
_cell_length_c                    28.2843
_cell_angle_alpha                 90.0
_cell_angle_beta                 90.0
_cell_angle_gamma                 90.0
loop_
_atom_site_label
_atom_site_type_symbol
_atom_site_fract_x
_atom_site_fract_y
_atom_site_fract_z
V1     V     0.5794   0.8664   0.6958
V2     V     0.8664   0.6958   0.5794
V3     V     0.6958   0.5794   0.8664
V4     V     0.8664   0.8042   0.0794
V5     V     0.6958   0.9206   0.3664
V6     V     0.5794   0.6336   0.1958
V7     V     0.9206   0.3664   0.6958
V8     V     0.8042   0.0794   0.8664
V9     V     0.6336   0.1958   0.5794
V10     V     0.0794   0.8664   0.8042
V11     V     0.3664   0.6958   0.9206
V12     V     0.1958   0.5794   0.6336
V13     V     0.8042   0.4206   0.3664
V14     V     0.6336   0.3042   0.0794
V15     V     0.9206   0.1336   0.1958
V16     V     0.4206   0.3664   0.8042
V17     V     0.3042   0.0794   0.6336
V18     V     0.1336   0.1958   0.9206
V19     V     0.3664   0.8042   0.4206
V20     V     0.0794   0.6336   0.3042
V21     V     0.1958   0.9206   0.1336
V22     V     0.1336   0.3042   0.4206
V23     V     0.3042   0.4206   0.1336
V24     V     0.4206   0.1336   0.3042
loop_
_geom_bond_atom_site_label_1
_geom_bond_atom_site_label_2
_geom_bond_distance
_geom_bond_site_symmetry_2
_ccdc_geom_bond_type
V1     V19    10.0   .     S
V1     V17    10.0   1_565     S
V1     V8    10.0   1_565     S
V1     V2    10.0   .     S
V1     V3    10.0   .     S
V1     V11    10.0   .     S
V1     V9    10.0   1_565     S
V1     V5    10.0   .     S
V2     V13    10.0   .     S
V2     V20    10.0   1_655     S
V2     V10    10.0   1_655     S
V2     V3    10.0   .     S
V2     V5    10.0   .     S
V2     V12    10.0   1_655     S
V2     V7    10.0   .     S
V3     V16    10.0   .     S
V3     V14    10.0   1_556     S
V3     V4    10.0   1_556     S
V3     V7    10.0   .     S
V3     V6    10.0   1_556     S
V3     V11    10.0   .     S
V4     V8    10.0   1_564     S
V4     V10    10.0   1_654     S
V4     V21    10.0   1_655     S
V4     V15    10.0   1_565     S
V4     V3    10.0   1_554     S
V4     V20    10.0   1_655     S
V4     V5    10.0   .     S
V4     V6    10.0   .     S
V5     V9    10.0   1_565     S
V5     V24    10.0   1_565     S
V5     V6    10.0   .     S
V5     V15    10.0   1_565     S
V5     V19    10.0   .     S
V6     V11    10.0   1_554     S
V6     V23    10.0   .     S
V6     V13    10.0   .     S
V6     V14    10.0   .     S
V6     V3    10.0   1_554     S
V6     V19    10.0   .     S
V7     V12    10.0   1_655     S
V7     V22    10.0   1_655     S
V7     V9    10.0   .     S
V7     V8    10.0   .     S
V7     V18    10.0   1_655     S
V7     V13    10.0   .     S
V8     V4    10.0   1_546     S
V8     V10    10.0   1_645     S
V8     V18    10.0   1_655     S
V8     V15    10.0   1_556     S
V8     V1    10.0   1_545     S
V8     V14    10.0   1_556     S
V8     V9    10.0   .     S
V9     V5    10.0   1_545     S
V9     V24    10.0   .     S
V9     V16    10.0   .     S
V9     V13    10.0   .     S
V9     V17    10.0   .     S
V9     V1    10.0   1_545     S
V10     V4    10.0   1_456     S
V10     V8    10.0   1_465     S
V10     V21    10.0   1_556     S
V10     V18    10.0   1_565     S
V10     V2    10.0   1_455     S
V10     V17    10.0   1_565     S
V10     V11    10.0   .     S
V10     V12    10.0   .     S
V11     V6    10.0   1_556     S
V11     V23    10.0   1_556     S
V11     V12    10.0   .     S
V11     V16    10.0   .     S
V11     V21    10.0   1_556     S
V12     V22    10.0   .     S
V12     V7    10.0   1_455     S
V12     V19    10.0   .     S
V12     V16    10.0   .     S
V12     V20    10.0   .     S
V12     V2    10.0   1_455     S
V13     V20    10.0   1_655     S
V13     V15    10.0   .     S
V13     V14    10.0   .     S
V13     V22    10.0   1_655     S
V14     V16    10.0   1_554     S
V14     V3    10.0   1_554     S
V14     V8    10.0   1_554     S
V14     V24    10.0   .     S
V14     V15    10.0   .     S
V14     V23    10.0   .     S
V15     V18    10.0   1_654     S
V15     V21    10.0   1_645     S
V15     V4    10.0   1_545     S
V15     V8    10.0   1_554     S
V15     V5    10.0   1_545     S
V15     V22    10.0   1_655     S
V16     V14    10.0   1_556     S
V16     V23    10.0   1_556     S
V16     V18    10.0   .     S
V16     V17    10.0   .     S
V17     V19    10.0   1_545     S
V17     V1    10.0   1_545     S
V17     V10    10.0   1_545     S
V17     V22    10.0   .     S
V17     V18    10.0   .     S
V17     V24    10.0   .     S
V18     V21    10.0   1_546     S
V18     V15    10.0   1_456     S
V18     V8    10.0   1_455     S
V18     V10    10.0   1_545     S
V18     V7    10.0   1_455     S
V18     V23    10.0   1_556     S
V19     V17    10.0   1_565     S
V19     V24    10.0   1_565     S
V19     V21    10.0   .     S
V19     V20    10.0   .     S
V20     V13    10.0   1_455     S
V20     V2    10.0   1_455     S
V20     V4    10.0   1_455     S
V20     V23    10.0   .     S
V20     V21    10.0   .     S
V20     V22    10.0   .     S
V21     V18    10.0   1_564     S
V21     V15    10.0   1_465     S
V21     V10    10.0   1_554     S
V21     V4    10.0   1_455     S
V21     V11    10.0   1_554     S
V21     V24    10.0   1_565     S
V22     V7    10.0   1_455     S
V22     V13    10.0   1_455     S
V22     V15    10.0   1_455     S
V22     V23    10.0   .     S
V22     V24    10.0   .     S
V23     V11    10.0   1_554     S
V23     V16    10.0   1_554     S
V23     V18    10.0   1_554     S
V23     V24    10.0   .     S
V24     V5    10.0   1_545     S
V24     V19    10.0   1_545     S
V24     V21    10.0   1_545     S
