data_epwa
_audit_creation_date              2020-02-04
_audit_creation_method            'Pymatgen'
_symmetry_space_group_name_H-M    'P1'
_symmetry_Int_Tables_number       1
loop_
_symmetry_equiv_pos_as_xyz
  x,y,z
_cell_length_a                    129.4825
_cell_length_b                    129.4825
_cell_length_c                    129.4825
_cell_angle_alpha                 90.0
_cell_angle_beta                 90.0
_cell_angle_gamma                 90.0
loop_
_atom_site_label
_atom_site_type_symbol
_atom_site_fract_x
_atom_site_fract_y
_atom_site_fract_z
V1     V     0.5223   0.5769   0.4677
V2     V     0.4777   0.5323   0.4231
V3     V     0.5769   0.5223   0.4677
V4     V     0.5323   0.4777   0.4231
V5     V     0.4677   0.5769   0.5223
V6     V     0.4231   0.5323   0.4777
V7     V     0.4677   0.5223   0.5769
V8     V     0.4231   0.4777   0.5323
V9     V     0.5223   0.4677   0.5769
V10     V     0.4777   0.4231   0.5323
V11     V     0.5769   0.4677   0.5223
V12     V     0.5323   0.4231   0.4777
V13     V     0.4777   0.9231   0.0323
V14     V     0.5223   0.9677   0.0769
V15     V     0.4777   0.0323   0.9231
V16     V     0.5223   0.0769   0.9677
V17     V     0.5769   0.9677   0.0223
V18     V     0.5323   0.9231   0.9777
V19     V     0.5769   0.0223   0.9677
V20     V     0.5323   0.9777   0.9231
V21     V     0.4677   0.0769   0.0223
V22     V     0.4231   0.0323   0.9777
V23     V     0.4677   0.0223   0.0769
V24     V     0.4231   0.9777   0.0323
V25     V     0.9231   0.4777   0.0323
V26     V     0.9677   0.5223   0.0769
V27     V     0.0323   0.4777   0.9231
V28     V     0.0769   0.5223   0.9677
V29     V     0.9677   0.5769   0.0223
V30     V     0.9231   0.5323   0.9777
V31     V     0.0223   0.5769   0.9677
V32     V     0.9777   0.5323   0.9231
V33     V     0.0769   0.4677   0.0223
V34     V     0.0323   0.4231   0.9777
V35     V     0.0223   0.4677   0.0769
V36     V     0.9777   0.4231   0.0323
V37     V     0.9677   0.0223   0.5769
V38     V     0.9231   0.9777   0.5323
V39     V     0.0223   0.9677   0.5769
V40     V     0.9777   0.9231   0.5323
V41     V     0.0323   0.9231   0.4777
V42     V     0.0769   0.9677   0.5223
V43     V     0.9231   0.0323   0.4777
V44     V     0.9677   0.0769   0.5223
V45     V     0.0769   0.0223   0.4677
V46     V     0.0323   0.9777   0.4231
V47     V     0.0223   0.0769   0.4677
V48     V     0.9777   0.0323   0.4231
Er49     Er     0.8137   0.0571   0.1117
Er50     Er     0.8137   0.1117   0.0571
Ti51     Ti     0.8704   0.0593   0.0593
Er52     Er     0.0571   0.8137   0.1117
Er53     Er     0.1117   0.8137   0.0571
Ti54     Ti     0.0593   0.8704   0.0593
Er55     Er     0.1117   0.0571   0.8137
Er56     Er     0.0571   0.1117   0.8137
Ti57     Ti     0.0593   0.0593   0.8704
Er58     Er     0.9429   0.1863   0.8883
Er59     Er     0.8883   0.1863   0.9429
Ti60     Ti     0.9407   0.1296   0.9407
Er61     Er     0.8883   0.9429   0.1863
Er62     Er     0.9429   0.8883   0.1863
Ti63     Ti     0.9407   0.9407   0.1296
Ce64     Ce     0.0308   0.9362   0.0308
Ce65     Ce     0.0308   0.0308   0.9362
Ce66     Ce     0.9692   0.0638   0.9692
Ce67     Ce     0.0638   0.9692   0.9692
Ce68     Ce     0.9362   0.0308   0.0308
Ce69     Ce     0.9692   0.9692   0.0638
Er70     Er     0.1863   0.8883   0.9429
Er71     Er     0.1863   0.9429   0.8883
Ti72     Ti     0.1296   0.9407   0.9407
V73     V     0.2823   0.5769   0.2277
V74     V     0.3269   0.5323   0.2723
V75     V     0.2277   0.4677   0.1731
V76     V     0.2723   0.4231   0.2177
V77     V     0.2177   0.4231   0.2723
V78     V     0.1731   0.4677   0.2277
V79     V     0.2723   0.5323   0.3269
V80     V     0.2277   0.5769   0.2823
V81     V     0.2177   0.4777   0.3269
V82     V     0.1731   0.5223   0.2823
V83     V     0.2823   0.5223   0.1731
V84     V     0.3269   0.4777   0.2177
V85     V     0.5223   0.1731   0.2823
V86     V     0.4777   0.2177   0.3269
V87     V     0.5769   0.2277   0.2823
V88     V     0.5323   0.2723   0.3269
V89     V     0.4777   0.3269   0.2177
V90     V     0.5223   0.2823   0.1731
V91     V     0.5769   0.2823   0.2277
V92     V     0.5323   0.3269   0.2723
V93     V     0.4231   0.2177   0.2723
V94     V     0.4677   0.1731   0.2277
V95     V     0.4677   0.2277   0.1731
V96     V     0.4231   0.2723   0.2177
V97     V     0.1731   0.2277   0.4677
V98     V     0.2177   0.2723   0.4231
V99     V     0.2823   0.1731   0.5223
V100     V     0.3269   0.2177   0.4777
V101     V     0.2723   0.2177   0.4231
V102     V     0.2277   0.1731   0.4677
V103     V     0.2823   0.2277   0.5769
V104     V     0.3269   0.2723   0.5323
V105     V     0.2723   0.3269   0.5323
V106     V     0.2277   0.2823   0.5769
V107     V     0.2177   0.3269   0.4777
V108     V     0.1731   0.2823   0.5223
Er109     Er     0.1383   0.1929   0.8137
Er110     Er     0.1929   0.1383   0.8137
Ti111     Ti     0.1907   0.1907   0.8704
Er112     Er     0.0637   0.3071   0.8883
Er113     Er     0.0637   0.3617   0.9429
Ti114     Ti     0.1204   0.3093   0.9407
Er115     Er     0.3617   0.0637   0.9429
Er116     Er     0.3071   0.0637   0.8883
Ti117     Ti     0.3093   0.1204   0.9407
Er118     Er     0.3071   0.3617   0.1863
Er119     Er     0.3617   0.3071   0.1863
Ti120     Ti     0.3093   0.3093   0.1296
Er121     Er     0.1929   0.4363   0.1117
Er122     Er     0.1383   0.4363   0.0571
Ti123     Ti     0.1907   0.3796   0.0593
Ce124     Ce     0.3138   0.2192   0.0308
Ce125     Ce     0.2808   0.2808   0.0638
Ce126     Ce     0.2808   0.1862   0.9692
Ce127     Ce     0.2192   0.2192   0.9362
Ce128     Ce     0.2192   0.3138   0.0308
Ce129     Ce     0.1862   0.2808   0.9692
Er130     Er     0.4363   0.1383   0.0571
Er131     Er     0.4363   0.1929   0.1117
Ti132     Ti     0.3796   0.1907   0.0593
Er133     Er     0.8137   0.1929   0.1383
Er134     Er     0.8137   0.1383   0.1929
Ti135     Ti     0.8704   0.1907   0.1907
Er136     Er     0.8883   0.3071   0.0637
Er137     Er     0.9429   0.3617   0.0637
Ti138     Ti     0.9407   0.3093   0.1204
Er139     Er     0.8883   0.0637   0.3071
Er140     Er     0.9429   0.0637   0.3617
Ti141     Ti     0.9407   0.1204   0.3093
Er142     Er     0.0571   0.4363   0.1383
Er143     Er     0.1117   0.4363   0.1929
Ti144     Ti     0.0593   0.3796   0.1907
Er145     Er     0.0571   0.1383   0.4363
Er146     Er     0.1117   0.1929   0.4363
Ti147     Ti     0.0593   0.1907   0.3796
Ce148     Ce     0.9362   0.2192   0.2192
Ce149     Ce     0.9692   0.2808   0.1862
Ce150     Ce     0.0638   0.2808   0.2808
Ce151     Ce     0.0308   0.2192   0.3138
Ce152     Ce     0.0308   0.3138   0.2192
Ce153     Ce     0.9692   0.1862   0.2808
Er154     Er     0.1863   0.3617   0.3071
Er155     Er     0.1863   0.3071   0.3617
Ti156     Ti     0.1296   0.3093   0.3093
Er157     Er     0.1383   0.8137   0.1929
Er158     Er     0.1929   0.8137   0.1383
Ti159     Ti     0.1907   0.8704   0.1907
Er160     Er     0.0637   0.9429   0.3617
Er161     Er     0.0637   0.8883   0.3071
Ti162     Ti     0.1204   0.9407   0.3093
Er163     Er     0.3071   0.8883   0.0637
Er164     Er     0.3617   0.9429   0.0637
Ti165     Ti     0.3093   0.9407   0.1204
Er166     Er     0.3617   0.1863   0.3071
Er167     Er     0.3071   0.1863   0.3617
Ti168     Ti     0.3093   0.1296   0.3093
Er169     Er     0.1383   0.0571   0.4363
Er170     Er     0.1929   0.1117   0.4363
Ti171     Ti     0.1907   0.0593   0.3796
Ce172     Ce     0.2192   0.9362   0.2192
Ce173     Ce     0.2808   0.0638   0.2808
Ce174     Ce     0.3138   0.0308   0.2192
Ce175     Ce     0.2808   0.9692   0.1862
Ce176     Ce     0.2192   0.0308   0.3138
Ce177     Ce     0.1862   0.9692   0.2808
Er178     Er     0.4363   0.1117   0.1929
Er179     Er     0.4363   0.0571   0.1383
Ti180     Ti     0.3796   0.0593   0.1907
Er181     Er     0.8883   0.6863   0.4429
Er182     Er     0.9429   0.6863   0.3883
Ti183     Ti     0.9407   0.6296   0.4407
Er184     Er     0.8137   0.5571   0.6117
Er185     Er     0.8137   0.6117   0.5571
Ti186     Ti     0.8704   0.5593   0.5593
Er187     Er     0.0571   0.3137   0.6117
Er188     Er     0.1117   0.3137   0.5571
Ti189     Ti     0.0593   0.3704   0.5593
Er190     Er     0.0571   0.6117   0.3137
Er191     Er     0.1117   0.5571   0.3137
Ti192     Ti     0.0593   0.5593   0.3704
Er193     Er     0.8883   0.4429   0.6863
Er194     Er     0.9429   0.3883   0.6863
Ti195     Ti     0.9407   0.4407   0.6296
Ce196     Ce     0.0308   0.5308   0.4362
Ce197     Ce     0.9692   0.4692   0.5638
Ce198     Ce     0.9692   0.5638   0.4692
Ce199     Ce     0.9362   0.5308   0.5308
Ce200     Ce     0.0308   0.4362   0.5308
Ce201     Ce     0.0638   0.4692   0.4692
Er202     Er     0.1863   0.3883   0.4429
Er203     Er     0.1863   0.4429   0.3883
Ti204     Ti     0.1296   0.4407   0.4407
Er205     Er     0.6117   0.5571   0.8137
Er206     Er     0.5571   0.6117   0.8137
Ti207     Ti     0.5593   0.5593   0.8704
Er208     Er     0.3883   0.6863   0.9429
Er209     Er     0.4429   0.6863   0.8883
Ti210     Ti     0.4407   0.6296   0.9407
Er211     Er     0.6863   0.3883   0.9429
Er212     Er     0.6863   0.4429   0.8883
Ti213     Ti     0.6296   0.4407   0.9407
Er214     Er     0.6117   0.3137   0.0571
Er215     Er     0.5571   0.3137   0.1117
Ti216     Ti     0.5593   0.3704   0.0593
Er217     Er     0.3137   0.5571   0.1117
Er218     Er     0.3137   0.6117   0.0571
Ti219     Ti     0.3704   0.5593   0.0593
Ce220     Ce     0.4692   0.4692   0.0638
Ce221     Ce     0.4362   0.5308   0.0308
Ce222     Ce     0.4692   0.5638   0.9692
Ce223     Ce     0.5308   0.4362   0.0308
Ce224     Ce     0.5308   0.5308   0.9362
Ce225     Ce     0.5638   0.4692   0.9692
Er226     Er     0.3883   0.4429   0.1863
Er227     Er     0.4429   0.3883   0.1863
Ti228     Ti     0.4407   0.4407   0.1296
Er229     Er     0.6863   0.9429   0.3883
Er230     Er     0.6863   0.8883   0.4429
Ti231     Ti     0.6296   0.9407   0.4407
Er232     Er     0.5571   0.8137   0.6117
Er233     Er     0.6117   0.8137   0.5571
Ti234     Ti     0.5593   0.8704   0.5593
Er235     Er     0.4429   0.1863   0.3883
Er236     Er     0.3883   0.1863   0.4429
Ti237     Ti     0.4407   0.1296   0.4407
Er238     Er     0.6117   0.0571   0.3137
Er239     Er     0.5571   0.1117   0.3137
Ti240     Ti     0.5593   0.0593   0.3704
Er241     Er     0.3883   0.9429   0.6863
Er242     Er     0.4429   0.8883   0.6863
Ti243     Ti     0.4407   0.9407   0.6296
Ce244     Ce     0.4362   0.0308   0.5308
Ce245     Ce     0.4692   0.0638   0.4692
Ce246     Ce     0.5308   0.9362   0.5308
Ce247     Ce     0.5638   0.9692   0.4692
Ce248     Ce     0.5308   0.0308   0.4362
Ce249     Ce     0.4692   0.9692   0.5638
Er250     Er     0.3137   0.0571   0.6117
Er251     Er     0.3137   0.1117   0.5571
Ti252     Ti     0.3704   0.0593   0.5593
V253     V     0.7177   0.9777   0.3269
V254     V     0.6731   0.0223   0.2823
V255     V     0.6731   0.9677   0.2277
V256     V     0.7177   0.9231   0.2723
V257     V     0.7723   0.9231   0.2177
V258     V     0.7277   0.9677   0.1731
V259     V     0.7823   0.0223   0.1731
V260     V     0.8269   0.9777   0.2177
V261     V     0.7723   0.0323   0.3269
V262     V     0.7277   0.0769   0.2823
V263     V     0.8269   0.0323   0.2723
V264     V     0.7823   0.0769   0.2277
Er265     Er     0.5571   0.9363   0.1383
Er266     Er     0.6117   0.9363   0.1929
Ti267     Ti     0.5593   0.8796   0.1907
Er268     Er     0.6863   0.8617   0.3071
Er269     Er     0.6863   0.8071   0.3617
Ti270     Ti     0.6296   0.8093   0.3093
Er271     Er     0.3883   0.8071   0.0637
Er272     Er     0.4429   0.8617   0.0637
Ti273     Ti     0.4407   0.8093   0.1204
Er274     Er     0.3137   0.6929   0.1383
Er275     Er     0.3137   0.6383   0.1929
Ti276     Ti     0.3704   0.6907   0.1907
Er277     Er     0.5571   0.6383   0.4363
Er278     Er     0.6117   0.6929   0.4363
Ti279     Ti     0.5593   0.6907   0.3796
Ce280     Ce     0.5638   0.7808   0.2808
Ce281     Ce     0.5308   0.8138   0.2192
Ce282     Ce     0.4692   0.7808   0.1862
Ce283     Ce     0.5308   0.7192   0.3138
Ce284     Ce     0.4692   0.6862   0.2808
Ce285     Ce     0.4362   0.7192   0.2192
Er286     Er     0.3883   0.5637   0.3071
Er287     Er     0.4429   0.5637   0.3617
Ti288     Ti     0.4407   0.6204   0.3093
Er289     Er     0.9363   0.6117   0.1929
Er290     Er     0.9363   0.5571   0.1383
Ti291     Ti     0.8796   0.5593   0.1907
Er292     Er     0.8071   0.6863   0.3617
Er293     Er     0.8617   0.6863   0.3071
Ti294     Ti     0.8093   0.6296   0.3093
Er295     Er     0.8617   0.4429   0.0637
Er296     Er     0.8071   0.3883   0.0637
Ti297     Ti     0.8093   0.4407   0.1204
Er298     Er     0.6929   0.3137   0.1383
Er299     Er     0.6383   0.3137   0.1929
Ti300     Ti     0.6907   0.3704   0.1907
Er301     Er     0.5637   0.4429   0.3617
Er302     Er     0.5637   0.3883   0.3071
Ti303     Ti     0.6204   0.4407   0.3093
Ce304     Ce     0.7808   0.5638   0.2808
Ce305     Ce     0.7192   0.4362   0.2192
Ce306     Ce     0.6862   0.4692   0.2808
Ce307     Ce     0.7192   0.5308   0.3138
Ce308     Ce     0.7808   0.4692   0.1862
Ce309     Ce     0.8138   0.5308   0.2192
Er310     Er     0.6929   0.6117   0.4363
Er311     Er     0.6383   0.5571   0.4363
Ti312     Ti     0.6907   0.5593   0.3796
V313     V     0.0323   0.7723   0.3269
V314     V     0.0769   0.7277   0.2823
V315     V     0.0223   0.6731   0.2823
V316     V     0.9777   0.7177   0.3269
V317     V     0.9231   0.7177   0.2723
V318     V     0.9677   0.6731   0.2277
V319     V     0.9231   0.7723   0.2177
V320     V     0.9677   0.7277   0.1731
V321     V     0.9777   0.8269   0.2177
V322     V     0.0223   0.7823   0.1731
V323     V     0.0323   0.8269   0.2723
V324     V     0.0769   0.7823   0.2277
V325     V     0.9231   0.2177   0.7723
V326     V     0.9677   0.1731   0.7277
V327     V     0.0323   0.2723   0.8269
V328     V     0.0769   0.2277   0.7823
V329     V     0.9777   0.2177   0.8269
V330     V     0.0223   0.1731   0.7823
V331     V     0.0223   0.2823   0.6731
V332     V     0.9777   0.3269   0.7177
V333     V     0.9231   0.2723   0.7177
V334     V     0.9677   0.2277   0.6731
V335     V     0.0323   0.3269   0.7723
V336     V     0.0769   0.2823   0.7277
Er337     Er     0.9363   0.1929   0.6117
Er338     Er     0.9363   0.1383   0.5571
Ti339     Ti     0.8796   0.1907   0.5593
Er340     Er     0.8617   0.3071   0.6863
Er341     Er     0.8071   0.3617   0.6863
Ti342     Ti     0.8093   0.3093   0.6296
Er343     Er     0.8071   0.0637   0.3883
Er344     Er     0.8617   0.0637   0.4429
Ti345     Ti     0.8093   0.1204   0.4407
Er346     Er     0.6929   0.1383   0.3137
Er347     Er     0.6383   0.1929   0.3137
Ti348     Ti     0.6907   0.1907   0.3704
Er349     Er     0.6383   0.4363   0.5571
Er350     Er     0.6929   0.4363   0.6117
Ti351     Ti     0.6907   0.3796   0.5593
Ce352     Ce     0.7808   0.2808   0.5638
Ce353     Ce     0.8138   0.2192   0.5308
Ce354     Ce     0.7808   0.1862   0.4692
Ce355     Ce     0.7192   0.3138   0.5308
Ce356     Ce     0.7192   0.2192   0.4362
Ce357     Ce     0.6862   0.2808   0.4692
Er358     Er     0.5637   0.3071   0.3883
Er359     Er     0.5637   0.3617   0.4429
Ti360     Ti     0.6204   0.3093   0.4407
Er361     Er     0.5571   0.1383   0.9363
Er362     Er     0.6117   0.1929   0.9363
Ti363     Ti     0.5593   0.1907   0.8796
Er364     Er     0.3883   0.3071   0.5637
Er365     Er     0.4429   0.3617   0.5637
Ti366     Ti     0.4407   0.3093   0.6204
Er367     Er     0.6863   0.3617   0.8071
Er368     Er     0.6863   0.3071   0.8617
Ti369     Ti     0.6296   0.3093   0.8093
Er370     Er     0.4429   0.0637   0.8617
Er371     Er     0.3883   0.0637   0.8071
Ti372     Ti     0.4407   0.1204   0.8093
Er373     Er     0.3137   0.1383   0.6929
Er374     Er     0.3137   0.1929   0.6383
Ti375     Ti     0.3704   0.1907   0.6907
Ce376     Ce     0.4362   0.2192   0.7192
Ce377     Ce     0.5308   0.3138   0.7192
Ce378     Ce     0.4692   0.2808   0.6862
Ce379     Ce     0.4692   0.1862   0.7808
Ce380     Ce     0.5638   0.2808   0.7808
Ce381     Ce     0.5308   0.2192   0.8138
Er382     Er     0.6117   0.4363   0.6929
Er383     Er     0.5571   0.4363   0.6383
Ti384     Ti     0.5593   0.3796   0.6907
V385     V     0.3269   0.7723   0.0323
V386     V     0.2823   0.7277   0.0769
V387     V     0.2177   0.7723   0.9231
V388     V     0.1731   0.7277   0.9677
V389     V     0.2177   0.8269   0.9777
V390     V     0.1731   0.7823   0.0223
V391     V     0.2723   0.8269   0.0323
V392     V     0.2277   0.7823   0.0769
V393     V     0.2823   0.6731   0.0223
V394     V     0.3269   0.7177   0.9777
V395     V     0.2277   0.6731   0.9677
V396     V     0.2723   0.7177   0.9231
Er397     Er     0.1383   0.5571   0.9363
Er398     Er     0.1929   0.6117   0.9363
Ti399     Ti     0.1907   0.5593   0.8796
Er400     Er     0.0637   0.3883   0.8071
Er401     Er     0.0637   0.4429   0.8617
Ti402     Ti     0.1204   0.4407   0.8093
Er403     Er     0.1383   0.3137   0.6929
Er404     Er     0.1929   0.3137   0.6383
Ti405     Ti     0.1907   0.3704   0.6907
Er406     Er     0.3071   0.3883   0.5637
Er407     Er     0.3617   0.4429   0.5637
Ti408     Ti     0.3093   0.4407   0.6204
Er409     Er     0.4363   0.6117   0.6929
Er410     Er     0.4363   0.5571   0.6383
Ti411     Ti     0.3796   0.5593   0.6907
Ce412     Ce     0.3138   0.5308   0.7192
Ce413     Ce     0.2192   0.4362   0.7192
Ce414     Ce     0.2808   0.4692   0.6862
Ce415     Ce     0.1862   0.4692   0.7808
Ce416     Ce     0.2192   0.5308   0.8138
Ce417     Ce     0.2808   0.5638   0.7808
Er418     Er     0.3617   0.6863   0.8071
Er419     Er     0.3071   0.6863   0.8617
Ti420     Ti     0.3093   0.6296   0.8093
V421     V     0.2723   0.0323   0.8269
V422     V     0.2277   0.0769   0.7823
V423     V     0.3269   0.0323   0.7723
V424     V     0.2823   0.0769   0.7277
V425     V     0.2177   0.9231   0.7723
V426     V     0.1731   0.9677   0.7277
V427     V     0.2177   0.9777   0.8269
V428     V     0.1731   0.0223   0.7823
V429     V     0.2823   0.0223   0.6731
V430     V     0.3269   0.9777   0.7177
V431     V     0.2723   0.9231   0.7177
V432     V     0.2277   0.9677   0.6731
V433     V     0.7723   0.3269   0.0323
V434     V     0.7277   0.2823   0.0769
V435     V     0.8269   0.2723   0.0323
V436     V     0.7823   0.2277   0.0769
V437     V     0.7177   0.3269   0.9777
V438     V     0.6731   0.2823   0.0223
V439     V     0.7177   0.2723   0.9231
V440     V     0.6731   0.2277   0.9677
V441     V     0.8269   0.2177   0.9777
V442     V     0.7823   0.1731   0.0223
V443     V     0.7723   0.2177   0.9231
V444     V     0.7277   0.1731   0.9677
Er445     Er     0.1929   0.9363   0.6117
Er446     Er     0.1383   0.9363   0.5571
Ti447     Ti     0.1907   0.8796   0.5593
Er448     Er     0.0637   0.8617   0.4429
Er449     Er     0.0637   0.8071   0.3883
Ti450     Ti     0.1204   0.8093   0.4407
Er451     Er     0.1383   0.6929   0.3137
Er452     Er     0.1929   0.6383   0.3137
Ti453     Ti     0.1907   0.6907   0.3704
Er454     Er     0.3071   0.5637   0.3883
Er455     Er     0.3617   0.5637   0.4429
Ti456     Ti     0.3093   0.6204   0.4407
Er457     Er     0.4363   0.6929   0.6117
Er458     Er     0.4363   0.6383   0.5571
Ti459     Ti     0.3796   0.6907   0.5593
Ce460     Ce     0.1862   0.7808   0.4692
Ce461     Ce     0.3138   0.7192   0.5308
Ce462     Ce     0.2808   0.6862   0.4692
Ce463     Ce     0.2808   0.7808   0.5638
Ce464     Ce     0.2192   0.8138   0.5308
Ce465     Ce     0.2192   0.7192   0.4362
Er466     Er     0.3617   0.8071   0.6863
Er467     Er     0.3071   0.8617   0.6863
Ti468     Ti     0.3093   0.8093   0.6296
Er469     Er     0.9363   0.0571   0.6383
Er470     Er     0.9363   0.1117   0.6929
Ti471     Ti     0.8796   0.0593   0.6907
Er472     Er     0.6929   0.1117   0.9363
Er473     Er     0.6383   0.0571   0.9363
Ti474     Ti     0.6907   0.0593   0.8796
Er475     Er     0.6383   0.8137   0.6929
Er476     Er     0.6929   0.8137   0.6383
Ti477     Ti     0.6907   0.8704   0.6907
Er478     Er     0.5637   0.8883   0.8071
Er479     Er     0.5637   0.9429   0.8617
Ti480     Ti     0.6204   0.9407   0.8093
Er481     Er     0.8617   0.9429   0.5637
Er482     Er     0.8071   0.8883   0.5637
Ti483     Ti     0.8093   0.9407   0.6204
Ce484     Ce     0.7808   0.0638   0.7808
Ce485     Ce     0.7192   0.0308   0.8138
Ce486     Ce     0.6862   0.9692   0.7808
Ce487     Ce     0.7192   0.9362   0.7192
Ce488     Ce     0.8138   0.0308   0.7192
Ce489     Ce     0.7808   0.9692   0.6862
Er490     Er     0.8071   0.1863   0.8617
Er491     Er     0.8617   0.1863   0.8071
Ti492     Ti     0.8093   0.1296   0.8093
V493     V     0.7723   0.8269   0.5323
V494     V     0.7277   0.7823   0.5769
V495     V     0.8269   0.7723   0.5323
V496     V     0.7823   0.7277   0.5769
V497     V     0.7177   0.8269   0.4777
V498     V     0.6731   0.7823   0.5223
V499     V     0.7823   0.6731   0.5223
V500     V     0.8269   0.7177   0.4777
V501     V     0.7177   0.7723   0.4231
V502     V     0.6731   0.7277   0.4677
V503     V     0.7723   0.7177   0.4231
V504     V     0.7277   0.6731   0.4677
Er505     Er     0.0571   0.6383   0.9363
Er506     Er     0.1117   0.6929   0.9363
Ti507     Ti     0.0593   0.6907   0.8796
Er508     Er     0.1117   0.9363   0.6929
Er509     Er     0.0571   0.9363   0.6383
Ti510     Ti     0.0593   0.8796   0.6907
Er511     Er     0.8137   0.6929   0.6383
Er512     Er     0.8137   0.6383   0.6929
Ti513     Ti     0.8704   0.6907   0.6907
Er514     Er     0.8883   0.8071   0.5637
Er515     Er     0.9429   0.8617   0.5637
Ti516     Ti     0.9407   0.8093   0.6204
Er517     Er     0.9429   0.5637   0.8617
Er518     Er     0.8883   0.5637   0.8071
Ti519     Ti     0.9407   0.6204   0.8093
Ce520     Ce     0.0638   0.7808   0.7808
Ce521     Ce     0.0308   0.8138   0.7192
Ce522     Ce     0.9692   0.7808   0.6862
Ce523     Ce     0.9362   0.7192   0.7192
Ce524     Ce     0.0308   0.7192   0.8138
Ce525     Ce     0.9692   0.6862   0.7808
Er526     Er     0.1863   0.8617   0.8071
Er527     Er     0.1863   0.8071   0.8617
Ti528     Ti     0.1296   0.8093   0.8093
V529     V     0.7277   0.4677   0.6731
V530     V     0.7723   0.4231   0.7177
V531     V     0.7177   0.4231   0.7723
V532     V     0.6731   0.4677   0.7277
V533     V     0.7177   0.4777   0.8269
V534     V     0.6731   0.5223   0.7823
V535     V     0.7823   0.5223   0.6731
V536     V     0.8269   0.4777   0.7177
V537     V     0.8269   0.5323   0.7723
V538     V     0.7823   0.5769   0.7277
V539     V     0.7723   0.5323   0.8269
V540     V     0.7277   0.5769   0.7823
V541     V     0.4231   0.7723   0.7177
V542     V     0.4677   0.7277   0.6731
V543     V     0.4231   0.7177   0.7723
V544     V     0.4677   0.6731   0.7277
V545     V     0.4777   0.8269   0.7177
V546     V     0.5223   0.7823   0.6731
V547     V     0.5323   0.8269   0.7723
V548     V     0.5769   0.7823   0.7277
V549     V     0.5769   0.7277   0.7823
V550     V     0.5323   0.7723   0.8269
V551     V     0.4777   0.7177   0.8269
V552     V     0.5223   0.6731   0.7823
Er553     Er     0.6383   0.9363   0.0571
Er554     Er     0.6929   0.9363   0.1117
Ti555     Ti     0.6907   0.8796   0.0593
Er556     Er     0.9363   0.6929   0.1117
Er557     Er     0.9363   0.6383   0.0571
Ti558     Ti     0.8796   0.6907   0.0593
Er559     Er     0.6929   0.6383   0.8137
Er560     Er     0.6383   0.6929   0.8137
Ti561     Ti     0.6907   0.6907   0.8704
Er562     Er     0.8071   0.5637   0.8883
Er563     Er     0.8617   0.5637   0.9429
Ti564     Ti     0.8093   0.6204   0.9407
Er565     Er     0.5637   0.8617   0.9429
Er566     Er     0.5637   0.8071   0.8883
Ti567     Ti     0.6204   0.8093   0.9407
Ce568     Ce     0.7808   0.7808   0.0638
Ce569     Ce     0.7192   0.7192   0.9362
Ce570     Ce     0.7192   0.8138   0.0308
Ce571     Ce     0.6862   0.7808   0.9692
Ce572     Ce     0.8138   0.7192   0.0308
Ce573     Ce     0.7808   0.6862   0.9692
Er574     Er     0.8617   0.8071   0.1863
Er575     Er     0.8071   0.8617   0.1863
Ti576     Ti     0.8093   0.8093   0.1296
loop_
_geom_bond_atom_site_label_1
_geom_bond_atom_site_label_2
_geom_bond_distance
_geom_bond_site_symmetry_2
_ccdc_geom_bond_type
V1     V2    9.998   .     S
V1     V3    10.0   .     S
V1     V5    10.0   .     S
V1     Er277    10.001   .     S
V2     V4    10.0   .     S
V2     V6    10.0   .     S
V2     Er287    10.001   .     S
V3     V4    9.998   .     S
V3     V11    10.0   .     S
V3     Er311    10.001   .     S
V4     V12    10.0   .     S
V4     Er301    10.001   .     S
V5     V6    9.998   .     S
V5     V7    10.0   .     S
V5     Er458    10.001   .     S
V6     V8    10.0   .     S
V6     Er455    10.001   .     S
V7     V8    9.998   .     S
V7     V9    10.0   .     S
V7     Er410    10.001   .     S
V8     V10    10.0   .     S
V8     Er407    10.001   .     S
V9     V10    9.998   .     S
V9     V11    10.0   .     S
V9     Er383    10.001   .     S
V10     V12    10.0   .     S
V10     Er365    10.001   .     S
V11     V12    9.998   .     S
V11     Er349    10.001   .     S
V12     Er359    10.001   .     S
V13     V14    9.998   .     S
V13     V18    10.0   1_554     S
V13     V24    10.0   .     S
V13     Er272    10.001   .     S
V14     V17    10.0   .     S
V14     V23    10.0   1_565     S
V14     Er265    10.001   .     S
V15     V16    9.998   .     S
V15     V20    10.0   1_545     S
V15     V22    10.0   .     S
V15     Er370    10.001   .     S
V16     V19    10.0   .     S
V16     V21    10.0   1_556     S
V16     Er361    10.001   .     S
V17     V18    9.998   1_554     S
V17     V19    10.0   1_564     S
V17     Er553    10.001   .     S
V18     V13    10.0   1_556     S
V18     V17    9.998   1_556     S
V18     V20    10.0   .     S
V18     Er565    10.001   .     S
V19     V20    9.998   1_545     S
V19     V17    10.0   1_546     S
V19     Er473    10.001   .     S
V20     V15    10.0   1_565     S
V20     V19    9.998   1_565     S
V20     Er479    10.001   .     S
V21     V22    9.998   1_554     S
V21     V23    10.0   .     S
V21     V16    10.0   1_554     S
V21     Er130    10.001   .     S
V22     V21    9.998   1_556     S
V22     V24    10.0   1_546     S
V22     Er115    10.001   .     S
V23     V24    9.998   1_545     S
V23     V14    10.0   1_545     S
V23     Er179    10.001   .     S
V24     V23    9.998   1_565     S
V24     V22    10.0   1_564     S
V24     Er164    10.001   .     S
V25     V26    9.998   .     S
V25     V30    10.0   1_554     S
V25     V36    10.0   .     S
V25     Er295    10.001   .     S
V26     V29    10.0   .     S
V26     V35    10.0   1_655     S
V26     Er290    10.001   .     S
V27     V28    9.998   .     S
V27     V32    10.0   1_455     S
V27     V34    10.0   .     S
V27     Er401    10.001   .     S
V28     V31    10.0   .     S
V28     V33    10.0   1_556     S
V28     Er397    10.001   .     S
V29     V30    9.998   1_554     S
V29     V31    10.0   1_654     S
V29     Er557    10.001   .     S
V30     V25    10.0   1_556     S
V30     V29    9.998   1_556     S
V30     V32    10.0   .     S
V30     Er563    10.001   .     S
V31     V32    9.998   1_455     S
V31     V29    10.0   1_456     S
V31     Er505    10.001   .     S
V32     V27    10.0   1_655     S
V32     V31    9.998   1_655     S
V32     Er517    10.001   .     S
V33     V34    9.998   1_554     S
V33     V35    10.0   .     S
V33     V28    10.0   1_554     S
V33     Er122    10.001   .     S
V34     V33    9.998   1_556     S
V34     V36    10.0   1_456     S
V34     Er113    10.001   .     S
V35     V36    9.998   1_455     S
V35     V26    10.0   1_455     S
V35     Er142    10.001   .     S
V36     V35    9.998   1_655     S
V36     V34    10.0   1_654     S
V36     Er137    10.001   .     S
V37     V38    9.998   1_545     S
V37     V44    10.0   .     S
V37     V39    10.0   1_645     S
V37     Er469    10.001   .     S
V38     V37    9.998   1_565     S
V38     V40    10.0   .     S
V38     V43    10.0   1_565     S
V38     Er481    10.001   .     S
V39     V40    9.998   1_455     S
V39     V42    10.0   .     S
V39     V37    10.0   1_465     S
V39     Er509    10.001   .     S
V40     V39    9.998   1_655     S
V40     V41    10.0   1_655     S
V40     Er515    10.001   .     S
V41     V42    9.998   .     S
V41     V40    10.0   1_455     S
V41     V46    10.0   .     S
V41     Er448    10.001   .     S
V42     V45    10.0   1_565     S
V42     Er446    10.001   .     S
V43     V44    9.998   .     S
V43     V38    10.0   1_545     S
V43     V48    10.0   .     S
V43     Er344    10.001   .     S
V44     V47    10.0   1_655     S
V44     Er338    10.001   .     S
V45     V46    9.998   1_545     S
V45     V47    10.0   .     S
V45     V42    10.0   1_545     S
V45     Er169    10.001   .     S
V46     V45    9.998   1_565     S
V46     V48    10.0   1_465     S
V46     Er160    10.001   .     S
V47     V44    10.0   1_455     S
V47     V48    9.998   1_455     S
V47     Er145    10.001   .     S
V48     V47    9.998   1_655     S
V48     V46    10.0   1_645     S
V48     Er140    10.001   .     S
Er49     Ti51    9.999   .     S
Er49     V259    10.001   .     S
Er49     Er50    10.0   .     S
Er50     Ti51    9.999   .     S
Er50     V442    10.001   .     S
Ti51     Ce68    10.001   .     S
Er52     Ti54    9.999   .     S
Er52     V322    10.001   .     S
Er52     Er53    10.0   .     S
Er53     Ti54    9.999   .     S
Er53     V390    10.001   .     S
Ti54     Ce64    10.001   .     S
Er55     Ti57    9.999   .     S
Er55     V428    10.001   .     S
Er55     Er56    10.0   .     S
Er56     Ti57    9.999   .     S
Er56     V330    10.001   .     S
Ti57     Ce65    10.001   .     S
Er58     Ti60    9.999   .     S
Er58     V329    10.001   .     S
Er58     Er59    10.0   .     S
Er59     Ti60    9.999   .     S
Er59     V441    10.001   .     S
Ti60     Ce66    10.001   .     S
Er61     Ti63    9.999   .     S
Er61     V260    10.001   .     S
Er61     Er62    10.0   .     S
Er62     Ti63    9.999   .     S
Er62     V321    10.001   .     S
Ti63     Ce69    10.001   .     S
Ce64     Ce69    10.0   1_455     S
Ce64     Ce67    10.0   1_554     S
Ce65     Ce67    10.0   1_545     S
Ce65     Ce66    10.0   1_455     S
Ce66     Ce65    10.0   1_655     S
Ce66     Ce68    10.0   1_556     S
Ce67     Ce64    10.0   1_556     S
Ce67     Ce65    10.0   1_565     S
Ce67     Ti72    10.001   .     S
Ce68     Ce69    10.0   1_545     S
Ce68     Ce66    10.0   1_554     S
Ce69     Ce64    10.0   1_655     S
Ce69     Ce68    10.0   1_565     S
Er70     Ti72    9.999   .     S
Er70     V389    10.001   .     S
Er70     Er71    10.0   .     S
Er71     Ti72    9.999   .     S
Er71     V427    10.001   .     S
V73     V74    9.998   .     S
V73     V80    10.0   .     S
V73     V83    10.0   .     S
V73     Er275    10.001   .     S
V74     V79    10.0   .     S
V74     V84    10.0   .     S
V74     Er286    10.001   .     S
V75     V76    9.998   .     S
V75     V78    10.0   .     S
V75     V83    10.0   .     S
V75     Er121    10.001   .     S
V76     V77    10.0   .     S
V76     V84    10.0   .     S
V76     Er118    10.001   .     S
V77     V78    9.998   .     S
V77     V81    10.0   .     S
V77     Er154    10.001   .     S
V78     V82    10.0   .     S
V78     Er143    10.001   .     S
V79     V80    9.998   .     S
V79     V81    10.0   .     S
V79     Er454    10.001   .     S
V80     V82    10.0   .     S
V80     Er452    10.001   .     S
V81     V82    9.998   .     S
V81     Er203    10.001   .     S
V82     Er191    10.001   .     S
V83     V84    9.998   .     S
V83     Er217    10.001   .     S
V84     Er226    10.001   .     S
V85     V86    9.998   .     S
V85     V87    10.0   .     S
V85     V94    10.0   .     S
V85     Er239    10.001   .     S
V86     V88    10.0   .     S
V86     V93    10.0   .     S
V86     Er235    10.001   .     S
V87     V88    9.998   .     S
V87     V91    10.0   .     S
V87     Er347    10.001   .     S
V88     V92    10.0   .     S
V88     Er358    10.001   .     S
V89     V90    9.998   .     S
V89     V92    10.0   .     S
V89     V96    10.0   .     S
V89     Er227    10.001   .     S
V90     V91    10.0   .     S
V90     V95    10.0   .     S
V90     Er215    10.001   .     S
V91     V92    9.998   .     S
V91     Er299    10.001   .     S
V92     Er302    10.001   .     S
V93     V94    9.998   .     S
V93     V96    10.0   .     S
V93     Er166    10.001   .     S
V94     V95    10.0   .     S
V94     Er178    10.001   .     S
V95     V96    9.998   .     S
V95     Er131    10.001   .     S
V96     Er119    10.001   .     S
V97     V98    9.998   .     S
V97     V108    10.0   .     S
V97     V102    10.0   .     S
V97     Er146    10.001   .     S
V98     V101    10.0   .     S
V98     V107    10.0   .     S
V98     Er155    10.001   .     S
V99     V100    9.998   .     S
V99     V102    10.0   .     S
V99     V103    10.0   .     S
V99     Er251    10.001   .     S
V100     V104    10.0   .     S
V100     V101    10.0   .     S
V100     Er236    10.001   .     S
V101     V102    9.998   .     S
V101     Er167    10.001   .     S
V102     Er170    10.001   .     S
V103     V104    9.998   .     S
V103     V106    10.0   .     S
V103     Er374    10.001   .     S
V104     V105    10.0   .     S
V104     Er364    10.001   .     S
V105     V106    9.998   .     S
V105     V107    10.0   .     S
V105     Er406    10.001   .     S
V106     V108    10.0   .     S
V106     Er404    10.001   .     S
V107     V108    9.998   .     S
V107     Er202    10.001   .     S
V108     Er188    10.001   .     S
Er109     Ti111    9.999   .     S
Er109     V328    10.001   .     S
Er109     Er110    10.0   .     S
Er110     Ti111    9.999   .     S
Er110     V422    10.001   .     S
Ti111     Ce127    10.001   .     S
Er112     Ti114    9.999   .     S
Er112     V327    10.001   .     S
Er112     Er113    10.0   .     S
Er113     Ti114    9.999   .     S
Ti114     Ce129    10.001   .     S
Er115     Ti117    9.999   .     S
Er115     Er116    10.0   .     S
Er116     Ti117    9.999   .     S
Er116     V421    10.001   .     S
Ti117     Ce126    10.001   .     S
Er118     Ti120    9.999   .     S
Er118     Er119    10.0   .     S
Er119     Ti120    9.999   .     S
Ti120     Ce125    10.001   .     S
Er121     Ti123    9.999   .     S
Er121     Er122    10.0   .     S
Er122     Ti123    9.999   .     S
Ti123     Ce128    10.001   .     S
Ce124     Ce125    10.0   .     S
Ce124     Ce126    10.0   1_554     S
Ce124     Ti132    10.001   .     S
Ce125     Ce128    10.0   .     S
Ce126     Ce124    10.0   1_556     S
Ce126     Ce127    10.0   .     S
Ce127     Ce129    10.0   .     S
Ce128     Ce129    10.0   1_554     S
Ce129     Ce128    10.0   1_556     S
Er130     Ti132    9.999   .     S
Er130     Er131    10.0   .     S
Er131     Ti132    9.999   .     S
Er133     Ti135    9.999   .     S
Er133     V436    10.001   .     S
Er133     Er134    10.0   .     S
Er134     Ti135    9.999   .     S
Er134     V264    10.001   .     S
Ti135     Ce148    10.001   .     S
Er136     Ti138    9.999   .     S
Er136     V435    10.001   .     S
Er136     Er137    10.0   .     S
Er137     Ti138    9.999   .     S
Ti138     Ce149    10.001   .     S
Er139     Ti141    9.999   .     S
Er139     V263    10.001   .     S
Er139     Er140    10.0   .     S
Er140     Ti141    9.999   .     S
Ti141     Ce153    10.001   .     S
Er142     Ti144    9.999   .     S
Er142     Er143    10.0   .     S
Er143     Ti144    9.999   .     S
Ti144     Ce152    10.001   .     S
Er145     Ti147    9.999   .     S
Er145     Er146    10.0   .     S
Er146     Ti147    9.999   .     S
Ti147     Ce151    10.001   .     S
Ce148     Ce149    10.0   .     S
Ce148     Ce153    10.0   .     S
Ce149     Ce152    10.0   1_655     S
Ce150     Ce151    10.0   .     S
Ce150     Ce152    10.0   .     S
Ce150     Ti156    10.001   .     S
Ce151     Ce153    10.0   1_455     S
Ce152     Ce149    10.0   1_455     S
Ce153     Ce151    10.0   1_655     S
Er154     Ti156    9.999   .     S
Er154     Er155    10.0   .     S
Er155     Ti156    9.999   .     S
Er157     Ti159    9.999   .     S
Er157     V324    10.001   .     S
Er157     Er158    10.0   .     S
Er158     Ti159    9.999   .     S
Er158     V392    10.001   .     S
Ti159     Ce172    10.001   .     S
Er160     Ti162    9.999   .     S
Er160     Er161    10.0   .     S
Er161     Ti162    9.999   .     S
Er161     V323    10.001   .     S
Ti162     Ce177    10.001   .     S
Er163     Ti165    9.999   .     S
Er163     V391    10.001   .     S
Er163     Er164    10.0   .     S
Er164     Ti165    9.999   .     S
Ti165     Ce175    10.001   .     S
Er166     Ti168    9.999   .     S
Er166     Er167    10.0   .     S
Er167     Ti168    9.999   .     S
Ti168     Ce173    10.001   .     S
Er169     Ti171    9.999   .     S
Er169     Er170    10.0   .     S
Er170     Ti171    9.999   .     S
Ti171     Ce176    10.001   .     S
Ce172     Ce177    10.0   .     S
Ce172     Ce175    10.0   .     S
Ce173     Ce174    10.0   .     S
Ce173     Ce176    10.0   .     S
Ce174     Ce175    10.0   1_545     S
Ce174     Ti180    10.001   .     S
Ce175     Ce174    10.0   1_565     S
Ce176     Ce177    10.0   1_545     S
Ce177     Ce176    10.0   1_565     S
Er178     Ti180    9.999   .     S
Er178     Er179    10.0   .     S
Er179     Ti180    9.999   .     S
Er181     Ti183    9.999   .     S
Er181     V500    10.001   .     S
Er181     Er182    10.0   .     S
Er182     Ti183    9.999   .     S
Er182     V316    10.001   .     S
Ti183     Ce198    10.001   .     S
Er184     Ti186    9.999   .     S
Er184     V535    10.001   .     S
Er184     Er185    10.0   .     S
Er185     Ti186    9.999   .     S
Er185     V499    10.001   .     S
Ti186     Ce199    10.001   .     S
Er187     Ti189    9.999   .     S
Er187     V331    10.001   .     S
Er187     Er188    10.0   .     S
Er188     Ti189    9.999   .     S
Ti189     Ce200    10.001   .     S
Er190     Ti192    9.999   .     S
Er190     V315    10.001   .     S
Er190     Er191    10.0   .     S
Er191     Ti192    9.999   .     S
Ti192     Ce196    10.001   .     S
Er193     Ti195    9.999   .     S
Er193     V536    10.001   .     S
Er193     Er194    10.0   .     S
Er194     Ti195    9.999   .     S
Er194     V332    10.001   .     S
Ti195     Ce197    10.001   .     S
Ce196     Ce198    10.0   1_455     S
Ce196     Ce201    10.0   .     S
Ce197     Ce199    10.0   .     S
Ce197     Ce200    10.0   1_655     S
Ce198     Ce196    10.0   1_655     S
Ce198     Ce199    10.0   .     S
Ce200     Ce197    10.0   1_455     S
Ce200     Ce201    10.0   .     S
Ce201     Ti204    10.001   .     S
Er202     Ti204    9.999   .     S
Er202     Er203    10.0   .     S
Er203     Ti204    9.999   .     S
Er205     Ti207    9.999   .     S
Er205     V534    10.001   .     S
Er205     Er206    10.0   .     S
Er206     Ti207    9.999   .     S
Er206     V552    10.001   .     S
Ti207     Ce224    10.001   .     S
Er208     Ti210    9.999   .     S
Er208     V394    10.001   .     S
Er208     Er209    10.0   .     S
Er209     Ti210    9.999   .     S
Er209     V551    10.001   .     S
Ti210     Ce222    10.001   .     S
Er211     Ti213    9.999   .     S
Er211     V437    10.001   .     S
Er211     Er212    10.0   .     S
Er212     Ti213    9.999   .     S
Er212     V533    10.001   .     S
Ti213     Ce225    10.001   .     S
Er214     Ti216    9.999   .     S
Er214     V438    10.001   .     S
Er214     Er215    10.0   .     S
Er215     Ti216    9.999   .     S
Ti216     Ce223    10.001   .     S
Er217     Ti219    9.999   .     S
Er217     Er218    10.0   .     S
Er218     Ti219    9.999   .     S
Er218     V393    10.001   .     S
Ti219     Ce221    10.001   .     S
Ce220     Ce221    10.0   .     S
Ce220     Ce223    10.0   .     S
Ce220     Ti228    10.001   .     S
Ce221     Ce222    10.0   1_554     S
Ce222     Ce224    10.0   .     S
Ce222     Ce221    10.0   1_556     S
Ce223     Ce225    10.0   1_554     S
Ce224     Ce225    10.0   .     S
Ce225     Ce223    10.0   1_556     S
Er226     Ti228    9.999   .     S
Er226     Er227    10.0   .     S
Er227     Ti228    9.999   .     S
Er229     Ti231    9.999   .     S
Er229     V253    10.001   .     S
Er229     Er230    10.0   .     S
Er230     Ti231    9.999   .     S
Er230     V497    10.001   .     S
Ti231     Ce247    10.001   .     S
Er232     Ti234    9.999   .     S
Er232     V546    10.001   .     S
Er232     Er233    10.0   .     S
Er233     Ti234    9.999   .     S
Er233     V498    10.001   .     S
Ti234     Ce246    10.001   .     S
Er235     Ti237    9.999   .     S
Er235     Er236    10.0   .     S
Er236     Ti237    9.999   .     S
Ti237     Ce245    10.001   .     S
Er238     Ti240    9.999   .     S
Er238     V254    10.001   .     S
Er238     Er239    10.0   .     S
Er239     Ti240    9.999   .     S
Ti240     Ce248    10.001   .     S
Er241     Ti243    9.999   .     S
Er241     V430    10.001   .     S
Er241     Er242    10.0   .     S
Er242     Ti243    9.999   .     S
Er242     V545    10.001   .     S
Ti243     Ce249    10.001   .     S
Ce244     Ce249    10.0   1_545     S
Ce244     Ce245    10.0   .     S
Ce244     Ti252    10.001   .     S
Ce245     Ce248    10.0   .     S
Ce246     Ce249    10.0   .     S
Ce246     Ce247    10.0   .     S
Ce247     Ce248    10.0   1_565     S
Ce248     Ce247    10.0   1_545     S
Ce249     Ce244    10.0   1_565     S
Er250     Ti252    9.999   .     S
Er250     V429    10.001   .     S
Er250     Er251    10.0   .     S
Er251     Ti252    9.999   .     S
V253     V254    9.998   1_565     S
V253     V256    10.0   .     S
V253     V261    10.0   1_565     S
V254     V253    9.998   1_545     S
V254     V255    10.0   1_545     S
V254     V262    10.0   .     S
V255     V256    9.998   .     S
V255     V254    10.0   1_565     S
V255     V258    10.0   .     S
V255     Er266    10.001   .     S
V256     V257    10.0   .     S
V256     Er268    10.001   .     S
V257     V258    9.998   .     S
V257     V260    10.0   .     S
V257     Er575    10.001   .     S
V258     V259    10.0   1_565     S
V258     Er554    10.001   .     S
V259     V258    10.0   1_545     S
V259     V260    9.998   1_545     S
V259     V264    10.0   .     S
V260     V259    9.998   1_565     S
V260     V263    10.0   1_565     S
V261     V262    9.998   .     S
V261     V263    10.0   .     S
V261     V253    10.0   1_545     S
V261     Er343    10.001   .     S
V262     V264    10.0   .     S
V262     Er346    10.001   .     S
V263     V264    9.998   .     S
V263     V260    10.0   1_545     S
Er265     Ti267    9.999   .     S
Er265     Er266    10.0   .     S
Er266     Ti267    9.999   .     S
Ti267     Ce281    10.001   .     S
Er268     Ti270    9.999   .     S
Er268     Er269    10.0   .     S
Er269     Ti270    9.999   .     S
Er269     V501    10.001   .     S
Ti270     Ce280    10.001   .     S
Er271     Ti273    9.999   .     S
Er271     V385    10.001   .     S
Er271     Er272    10.0   .     S
Er272     Ti273    9.999   .     S
Ti273     Ce282    10.001   .     S
Er274     Ti276    9.999   .     S
Er274     V386    10.001   .     S
Er274     Er275    10.0   .     S
Er275     Ti276    9.999   .     S
Ti276     Ce285    10.001   .     S
Er277     Ti279    9.999   .     S
Er277     Er278    10.0   .     S
Er278     Ti279    9.999   .     S
Er278     V502    10.001   .     S
Ti279     Ce283    10.001   .     S
Ce280     Ce281    10.0   .     S
Ce280     Ce283    10.0   .     S
Ce281     Ce282    10.0   .     S
Ce282     Ce285    10.0   .     S
Ce283     Ce284    10.0   .     S
Ce284     Ce285    10.0   .     S
Ce284     Ti288    10.001   .     S
Er286     Ti288    9.999   .     S
Er286     Er287    10.0   .     S
Er287     Ti288    9.999   .     S
Er289     Ti291    9.999   .     S
Er289     V318    10.001   .     S
Er289     Er290    10.0   .     S
Er290     Ti291    9.999   .     S
Ti291     Ce309    10.001   .     S
Er292     Ti294    9.999   .     S
Er292     V503    10.001   .     S
Er292     Er293    10.0   .     S
Er293     Ti294    9.999   .     S
Er293     V317    10.001   .     S
Ti294     Ce304    10.001   .     S
Er295     Ti297    9.999   .     S
Er295     Er296    10.0   .     S
Er296     Ti297    9.999   .     S
Er296     V433    10.001   .     S
Ti297     Ce308    10.001   .     S
Er298     Ti300    9.999   .     S
Er298     V434    10.001   .     S
Er298     Er299    10.0   .     S
Er299     Ti300    9.999   .     S
Ti300     Ce305    10.001   .     S
Er301     Ti303    9.999   .     S
Er301     Er302    10.0   .     S
Er302     Ti303    9.999   .     S
Ti303     Ce306    10.001   .     S
Ce304     Ce309    10.0   .     S
Ce304     Ce307    10.0   .     S
Ce305     Ce306    10.0   .     S
Ce305     Ce308    10.0   .     S
Ce306     Ce307    10.0   .     S
Ce307     Ti312    10.001   .     S
Ce308     Ce309    10.0   .     S
Er310     Ti312    9.999   .     S
Er310     V504    10.001   .     S
Er310     Er311    10.0   .     S
Er311     Ti312    9.999   .     S
V313     V314    9.998   .     S
V313     V323    10.0   .     S
V313     V316    10.0   1_455     S
V313     Er449    10.001   .     S
V314     V324    10.0   .     S
V314     V315    10.0   .     S
V314     Er451    10.001   .     S
V315     V316    9.998   1_455     S
V315     V318    10.0   1_455     S
V316     V315    9.998   1_655     S
V316     V317    10.0   .     S
V316     V313    10.0   1_655     S
V317     V318    9.998   .     S
V317     V319    10.0   .     S
V318     V315    10.0   1_655     S
V318     V320    10.0   .     S
V319     V320    9.998   .     S
V319     V321    10.0   .     S
V319     Er574    10.001   .     S
V320     V322    10.0   1_655     S
V320     Er556    10.001   .     S
V321     V322    9.998   1_655     S
V321     V323    10.0   1_655     S
V322     V321    9.998   1_455     S
V322     V324    10.0   .     S
V322     V320    10.0   1_455     S
V323     V324    9.998   .     S
V323     V321    10.0   1_455     S
V325     V326    9.998   .     S
V325     V329    10.0   .     S
V325     V333    10.0   .     S
V325     Er491    10.001   .     S
V326     V330    10.0   1_655     S
V326     V334    10.0   .     S
V326     Er470    10.001   .     S
V327     V328    9.998   .     S
V327     V329    10.0   1_455     S
V327     V335    10.0   .     S
V328     V330    10.0   .     S
V328     V336    10.0   .     S
V329     V327    10.0   1_655     S
V329     V330    9.998   1_655     S
V330     V326    10.0   1_455     S
V330     V329    9.998   1_455     S
V331     V332    9.998   1_455     S
V331     V334    10.0   1_455     S
V331     V336    10.0   .     S
V332     V331    9.998   1_655     S
V332     V333    10.0   .     S
V332     V335    10.0   1_655     S
V333     V334    9.998   .     S
V333     Er340    10.001   .     S
V334     V331    10.0   1_655     S
V334     Er337    10.001   .     S
V335     V336    9.998   .     S
V335     V332    10.0   1_455     S
V335     Er400    10.001   .     S
V336     Er403    10.001   .     S
Er337     Ti339    9.999   .     S
Er337     Er338    10.0   .     S
Er338     Ti339    9.999   .     S
Ti339     Ce353    10.001   .     S
Er340     Ti342    9.999   .     S
Er340     Er341    10.0   .     S
Er341     Ti342    9.999   .     S
Er341     V530    10.001   .     S
Ti342     Ce352    10.001   .     S
Er343     Ti345    9.999   .     S
Er343     Er344    10.0   .     S
Er344     Ti345    9.999   .     S
Ti345     Ce354    10.001   .     S
Er346     Ti348    9.999   .     S
Er346     Er347    10.0   .     S
Er347     Ti348    9.999   .     S
Ti348     Ce356    10.001   .     S
Er349     Ti351    9.999   .     S
Er349     Er350    10.0   .     S
Er350     Ti351    9.999   .     S
Er350     V529    10.001   .     S
Ti351     Ce355    10.001   .     S
Ce352     Ce353    10.0   .     S
Ce352     Ce355    10.0   .     S
Ce353     Ce354    10.0   .     S
Ce354     Ce356    10.0   .     S
Ce355     Ce357    10.0   .     S
Ce356     Ce357    10.0   .     S
Ce357     Ti360    10.001   .     S
Er358     Ti360    9.999   .     S
Er358     Er359    10.0   .     S
Er359     Ti360    9.999   .     S
Er361     Ti363    9.999   .     S
Er361     Er362    10.0   .     S
Er362     Ti363    9.999   .     S
Er362     V440    10.001   .     S
Ti363     Ce381    10.001   .     S
Er364     Ti366    9.999   .     S
Er364     Er365    10.0   .     S
Er365     Ti366    9.999   .     S
Ti366     Ce378    10.001   .     S
Er367     Ti369    9.999   .     S
Er367     V531    10.001   .     S
Er367     Er368    10.0   .     S
Er368     Ti369    9.999   .     S
Er368     V439    10.001   .     S
Ti369     Ce380    10.001   .     S
Er370     Ti372    9.999   .     S
Er370     Er371    10.0   .     S
Er371     Ti372    9.999   .     S
Er371     V423    10.001   .     S
Ti372     Ce379    10.001   .     S
Er373     Ti375    9.999   .     S
Er373     V424    10.001   .     S
Er373     Er374    10.0   .     S
Er374     Ti375    9.999   .     S
Ti375     Ce376    10.001   .     S
Ce376     Ce378    10.0   .     S
Ce376     Ce379    10.0   .     S
Ce377     Ce378    10.0   .     S
Ce377     Ce380    10.0   .     S
Ce377     Ti384    10.001   .     S
Ce379     Ce381    10.0   .     S
Ce380     Ce381    10.0   .     S
Er382     Ti384    9.999   .     S
Er382     V532    10.001   .     S
Er382     Er383    10.0   .     S
Er383     Ti384    9.999   .     S
V385     V386    9.998   .     S
V385     V391    10.0   .     S
V385     V394    10.0   1_554     S
V386     V393    10.0   .     S
V386     V392    10.0   .     S
V387     V388    9.998   .     S
V387     V389    10.0   .     S
V387     V396    10.0   .     S
V387     Er527    10.001   .     S
V388     V390    10.0   1_556     S
V388     V395    10.0   .     S
V388     Er506    10.001   .     S
V389     V390    9.998   1_556     S
V389     V391    10.0   1_556     S
V390     V388    10.0   1_554     S
V390     V389    9.998   1_554     S
V390     V392    10.0   .     S
V391     V389    10.0   1_554     S
V391     V392    9.998   .     S
V393     V394    9.998   1_554     S
V393     V395    10.0   1_554     S
V394     V385    10.0   1_556     S
V394     V393    9.998   1_556     S
V394     V396    10.0   .     S
V395     V396    9.998   .     S
V395     V393    10.0   1_556     S
V395     Er398    10.001   .     S
V396     Er419    10.001   .     S
Er397     Ti399    9.999   .     S
Er397     Er398    10.0   .     S
Er398     Ti399    9.999   .     S
Ti399     Ce416    10.001   .     S
Er400     Ti402    9.999   .     S
Er400     Er401    10.0   .     S
Er401     Ti402    9.999   .     S
Ti402     Ce415    10.001   .     S
Er403     Ti405    9.999   .     S
Er403     Er404    10.0   .     S
Er404     Ti405    9.999   .     S
Ti405     Ce413    10.001   .     S
Er406     Ti408    9.999   .     S
Er406     Er407    10.0   .     S
Er407     Ti408    9.999   .     S
Ti408     Ce414    10.001   .     S
Er409     Ti411    9.999   .     S
Er409     V544    10.001   .     S
Er409     Er410    10.0   .     S
Er410     Ti411    9.999   .     S
Ti411     Ce412    10.001   .     S
Ce412     Ce414    10.0   .     S
Ce412     Ce417    10.0   .     S
Ce413     Ce414    10.0   .     S
Ce413     Ce415    10.0   .     S
Ce415     Ce416    10.0   .     S
Ce416     Ce417    10.0   .     S
Ce417     Ti420    10.001   .     S
Er418     Ti420    9.999   .     S
Er418     V543    10.001   .     S
Er418     Er419    10.0   .     S
Er419     Ti420    9.999   .     S
V421     V422    9.998   .     S
V421     V427    10.0   1_545     S
V421     V423    10.0   .     S
V422     V424    10.0   .     S
V422     V428    10.0   .     S
V423     V424    9.998   .     S
V423     V430    10.0   1_545     S
V424     V429    10.0   .     S
V425     V426    9.998   .     S
V425     V427    10.0   .     S
V425     V431    10.0   .     S
V425     Er526    10.001   .     S
V426     V432    10.0   .     S
V426     V428    10.0   1_565     S
V426     Er508    10.001   .     S
V427     V421    10.0   1_565     S
V427     V428    9.998   1_565     S
V428     V427    9.998   1_545     S
V428     V426    10.0   1_545     S
V429     V430    9.998   1_545     S
V429     V432    10.0   1_545     S
V430     V429    9.998   1_565     S
V430     V431    10.0   .     S
V430     V423    10.0   1_565     S
V431     V432    9.998   .     S
V431     Er467    10.001   .     S
V432     V429    10.0   1_565     S
V432     Er445    10.001   .     S
V433     V434    9.998   .     S
V433     V435    10.0   .     S
V433     V437    10.0   1_554     S
V434     V436    10.0   .     S
V434     V438    10.0   .     S
V435     V436    9.998   .     S
V435     V441    10.0   1_554     S
V436     V442    10.0   .     S
V437     V438    9.998   1_556     S
V437     V439    10.0   .     S
V437     V433    10.0   1_556     S
V438     V437    9.998   1_554     S
V438     V440    10.0   1_554     S
V439     V440    9.998   .     S
V439     V443    10.0   .     S
V440     V438    10.0   1_556     S
V440     V444    10.0   .     S
V441     V435    10.0   1_556     S
V441     V442    9.998   1_556     S
V441     V443    10.0   .     S
V442     V441    9.998   1_554     S
V442     V444    10.0   1_554     S
V443     V444    9.998   .     S
V443     Er490    10.001   .     S
V444     V442    10.0   1_556     S
V444     Er472    10.001   .     S
Er445     Ti447    9.999   .     S
Er445     Er446    10.0   .     S
Er446     Ti447    9.999   .     S
Ti447     Ce464    10.001   .     S
Er448     Ti450    9.999   .     S
Er448     Er449    10.0   .     S
Er449     Ti450    9.999   .     S
Ti450     Ce460    10.001   .     S
Er451     Ti453    9.999   .     S
Er451     Er452    10.0   .     S
Er452     Ti453    9.999   .     S
Ti453     Ce465    10.001   .     S
Er454     Ti456    9.999   .     S
Er454     Er455    10.0   .     S
Er455     Ti456    9.999   .     S
Ti456     Ce462    10.001   .     S
Er457     Ti459    9.999   .     S
Er457     V542    10.001   .     S
Er457     Er458    10.0   .     S
Er458     Ti459    9.999   .     S
Ti459     Ce461    10.001   .     S
Ce460     Ce464    10.0   .     S
Ce460     Ce465    10.0   .     S
Ce461     Ce462    10.0   .     S
Ce461     Ce463    10.0   .     S
Ce462     Ce465    10.0   .     S
Ce463     Ce464    10.0   .     S
Ce463     Ti468    10.001   .     S
Er466     Ti468    9.999   .     S
Er466     V541    10.001   .     S
Er466     Er467    10.0   .     S
Er467     Ti468    9.999   .     S
Er469     Ti471    9.999   .     S
Er469     Er470    10.0   .     S
Er470     Ti471    9.999   .     S
Ti471     Ce488    10.001   .     S
Er472     Ti474    9.999   .     S
Er472     Er473    10.0   .     S
Er473     Ti474    9.999   .     S
Ti474     Ce485    10.001   .     S
Er475     Ti477    9.999   .     S
Er475     V548    10.001   .     S
Er475     Er476    10.0   .     S
Er476     Ti477    9.999   .     S
Er476     V494    10.001   .     S
Ti477     Ce487    10.001   .     S
Er478     Ti480    9.999   .     S
Er478     V547    10.001   .     S
Er478     Er479    10.0   .     S
Er479     Ti480    9.999   .     S
Ti480     Ce486    10.001   .     S
Er481     Ti483    9.999   .     S
Er481     Er482    10.0   .     S
Er482     Ti483    9.999   .     S
Er482     V493    10.001   .     S
Ti483     Ce489    10.001   .     S
Ce484     Ce485    10.0   .     S
Ce484     Ce488    10.0   .     S
Ce484     Ti492    10.001   .     S
Ce485     Ce486    10.0   1_545     S
Ce486     Ce485    10.0   1_565     S
Ce486     Ce487    10.0   .     S
Ce487     Ce489    10.0   .     S
Ce488     Ce489    10.0   1_545     S
Ce489     Ce488    10.0   1_565     S
Er490     Ti492    9.999   .     S
Er490     Er491    10.0   .     S
Er491     Ti492    9.999   .     S
V493     V494    9.998   .     S
V493     V495    10.0   .     S
V493     V497    10.0   .     S
V494     V498    10.0   .     S
V494     V496    10.0   .     S
V495     V496    9.998   .     S
V495     V500    10.0   .     S
V495     Er514    10.001   .     S
V496     V499    10.0   .     S
V496     Er511    10.001   .     S
V497     V498    9.998   .     S
V497     V501    10.0   .     S
V498     V502    10.0   .     S
V499     V500    9.998   .     S
V499     V504    10.0   .     S
V500     V503    10.0   .     S
V501     V502    9.998   .     S
V501     V503    10.0   .     S
V502     V504    10.0   .     S
V503     V504    9.998   .     S
Er505     Ti507    9.999   .     S
Er505     Er506    10.0   .     S
Er506     Ti507    9.999   .     S
Ti507     Ce524    10.001   .     S
Er508     Ti510    9.999   .     S
Er508     Er509    10.0   .     S
Er509     Ti510    9.999   .     S
Ti510     Ce521    10.001   .     S
Er511     Ti513    9.999   .     S
Er511     Er512    10.0   .     S
Er512     Ti513    9.999   .     S
Er512     V538    10.001   .     S
Ti513     Ce523    10.001   .     S
Er514     Ti516    9.999   .     S
Er514     Er515    10.0   .     S
Er515     Ti516    9.999   .     S
Ti516     Ce522    10.001   .     S
Er517     Ti519    9.999   .     S
Er517     Er518    10.0   .     S
Er518     Ti519    9.999   .     S
Er518     V537    10.001   .     S
Ti519     Ce525    10.001   .     S
Ce520     Ce524    10.0   .     S
Ce520     Ce521    10.0   .     S
Ce520     Ti528    10.001   .     S
Ce521     Ce522    10.0   1_455     S
Ce522     Ce521    10.0   1_655     S
Ce522     Ce523    10.0   .     S
Ce523     Ce525    10.0   .     S
Ce524     Ce525    10.0   1_455     S
Ce525     Ce524    10.0   1_655     S
Er526     Ti528    9.999   .     S
Er526     Er527    10.0   .     S
Er527     Ti528    9.999   .     S
V529     V530    9.998   .     S
V529     V535    10.0   .     S
V529     V532    10.0   .     S
V530     V536    10.0   .     S
V530     V531    10.0   .     S
V531     V532    9.998   .     S
V531     V533    10.0   .     S
V532     V534    10.0   .     S
V533     V534    9.998   .     S
V533     V539    10.0   .     S
V534     V540    10.0   .     S
V535     V536    9.998   .     S
V535     V538    10.0   .     S
V536     V537    10.0   .     S
V537     V538    9.998   .     S
V537     V539    10.0   .     S
V538     V540    10.0   .     S
V539     V540    9.998   .     S
V539     Er562    10.001   .     S
V540     Er559    10.001   .     S
V541     V542    9.998   .     S
V541     V545    10.0   .     S
V541     V543    10.0   .     S
V542     V544    10.0   .     S
V542     V546    10.0   .     S
V543     V544    9.998   .     S
V543     V551    10.0   .     S
V544     V552    10.0   .     S
V545     V546    9.998   .     S
V545     V547    10.0   .     S
V546     V548    10.0   .     S
V547     V548    9.998   .     S
V547     V550    10.0   .     S
V548     V549    10.0   .     S
V549     V550    9.998   .     S
V549     V552    10.0   .     S
V549     Er560    10.001   .     S
V550     V551    10.0   .     S
V550     Er566    10.001   .     S
V551     V552    9.998   .     S
Er553     Ti555    9.999   .     S
Er553     Er554    10.0   .     S
Er554     Ti555    9.999   .     S
Ti555     Ce570    10.001   .     S
Er556     Ti558    9.999   .     S
Er556     Er557    10.0   .     S
Er557     Ti558    9.999   .     S
Ti558     Ce572    10.001   .     S
Er559     Ti561    9.999   .     S
Er559     Er560    10.0   .     S
Er560     Ti561    9.999   .     S
Ti561     Ce569    10.001   .     S
Er562     Ti564    9.999   .     S
Er562     Er563    10.0   .     S
Er563     Ti564    9.999   .     S
Ti564     Ce573    10.001   .     S
Er565     Ti567    9.999   .     S
Er565     Er566    10.0   .     S
Er566     Ti567    9.999   .     S
Ti567     Ce571    10.001   .     S
Ce568     Ce572    10.0   .     S
Ce568     Ce570    10.0   .     S
Ce568     Ti576    10.001   .     S
Ce569     Ce573    10.0   .     S
Ce569     Ce571    10.0   .     S
Ce570     Ce571    10.0   1_554     S
Ce571     Ce570    10.0   1_556     S
Ce572     Ce573    10.0   1_554     S
Ce573     Ce572    10.0   1_556     S
Er574     Ti576    9.999   .     S
Er574     Er575    10.0   .     S
Er575     Ti576    9.999   .     S
