data_fcv
_audit_creation_date              2020-02-04
_audit_creation_method            'Pymatgen'
_symmetry_space_group_name_H-M    'P1'
_symmetry_Int_Tables_number       1
loop_
_symmetry_equiv_pos_as_xyz
  x,y,z
_cell_length_a                    72.638
_cell_length_b                    72.638
_cell_length_c                    72.638
_cell_angle_alpha                 90.0
_cell_angle_beta                 90.0
_cell_angle_gamma                 90.0
loop_
_atom_site_label
_atom_site_type_symbol
_atom_site_fract_x
_atom_site_fract_y
_atom_site_fract_z
V1     V     0.6038   0.325   0.797
V2     V     0.797   0.6038   0.325
V3     V     0.797   0.1462   0.425
V4     V     0.297   0.6462   0.425
V5     V     0.325   0.797   0.6038
V6     V     0.297   0.6038   0.825
V7     V     0.825   0.297   0.6038
V8     V     0.6038   0.297   0.325
V9     V     0.925   0.6462   0.297
V10     V     0.8962   0.703   0.175
V11     V     0.675   0.3962   0.703
V12     V     0.575   0.203   0.8538
V13     V     0.6462   0.297   0.925
V14     V     0.703   0.175   0.8962
V15     V     0.453   0.6038   0.925
V16     V     0.297   0.1038   0.325
V17     V     0.575   0.047   0.3962
V18     V     0.6038   0.925   0.453
V19     V     0.1038   0.325   0.297
V20     V     0.8538   0.575   0.203
V21     V     0.453   0.425   0.6038
V22     V     0.1462   0.425   0.797
V23     V     0.175   0.3962   0.203
V24     V     0.425   0.1462   0.297
V25     V     0.3962   0.203   0.175
V26     V     0.3538   0.075   0.203
V27     V     0.925   0.453   0.6038
V28     V     0.8962   0.575   0.547
V29     V     0.797   0.425   0.6462
V30     V     0.703   0.3538   0.575
V31     V     0.175   0.547   0.8538
V32     V     0.6038   0.797   0.825
V33     V     0.425   0.797   0.1462
V34     V     0.6462   0.925   0.797
V35     V     0.425   0.953   0.6038
V36     V     0.703   0.8962   0.675
V37     V     0.575   0.8538   0.703
V38     V     0.703   0.075   0.3538
V39     V     0.453   0.825   0.6462
V40     V     0.3962   0.703   0.675
V41     V     0.297   0.825   0.1038
V42     V     0.547   0.8538   0.175
V43     V     0.825   0.797   0.1038
V44     V     0.425   0.6462   0.797
V45     V     0.3538   0.575   0.703
V46     V     0.575   0.547   0.8962
V47     V     0.547   0.675   0.8538
V48     V     0.075   0.8538   0.203
V49     V     0.8962   0.075   0.047
V50     V     0.925   0.953   0.1038
V51     V     0.953   0.825   0.1462
V52     V     0.047   0.675   0.3538
V53     V     0.797   0.925   0.1462
V54     V     0.6462   0.953   0.325
V55     V     0.703   0.8538   0.075
V56     V     0.675   0.8962   0.203
V57     V     0.547   0.075   0.8962
V58     V     0.6462   0.825   0.953
V59     V     0.453   0.925   0.1038
V60     V     0.6038   0.953   0.925
V61     V     0.575   0.8962   0.047
V62     V     0.175   0.8538   0.047
V63     V     0.325   0.953   0.1462
V64     V     0.203   0.8962   0.175
V65     V     0.1462   0.925   0.297
V66     V     0.1038   0.797   0.325
V67     V     0.1038   0.825   0.797
V68     V     0.047   0.8962   0.075
V69     V     0.1462   0.953   0.825
V70     V     0.1038   0.925   0.953
V71     V     0.3538   0.703   0.075
V72     V     0.1462   0.797   0.925
V73     V     0.325   0.6462   0.953
V74     V     0.203   0.675   0.8962
V75     V     0.297   0.925   0.6462
V76     V     0.175   0.8962   0.703
V77     V     0.203   0.8538   0.575
V78     V     0.047   0.8538   0.675
V79     V     0.1462   0.825   0.453
V80     V     0.075   0.8962   0.547
V81     V     0.1038   0.953   0.425
V82     V     0.547   0.175   0.3538
V83     V     0.675   0.203   0.3962
V84     V     0.175   0.3538   0.547
V85     V     0.297   0.325   0.6038
V86     V     0.203   0.3962   0.675
V87     V     0.325   0.453   0.6462
V88     V     0.3962   0.547   0.575
V89     V     0.075   0.703   0.8538
V90     V     0.175   0.047   0.3538
V91     V     0.203   0.075   0.8538
V92     V     0.3962   0.047   0.075
V93     V     0.453   0.1462   0.825
V94     V     0.425   0.1038   0.953
V95     V     0.8538   0.675   0.047
V96     V     0.297   0.1462   0.925
V97     V     0.3962   0.075   0.547
V98     V     0.047   0.175   0.8538
V99     V     0.075   0.203   0.3538
V100     V     0.1462   0.297   0.425
V101     V     0.203   0.175   0.3962
V102     V     0.797   0.6462   0.925
V103     V     0.297   0.425   0.1462
V104     V     0.453   0.1038   0.425
V105     V     0.325   0.1462   0.453
V106     V     0.175   0.203   0.8962
V107     V     0.325   0.1038   0.797
V108     V     0.3962   0.175   0.703
V109     V     0.3538   0.047   0.675
V110     V     0.3538   0.203   0.575
V111     V     0.425   0.297   0.6462
V112     V     0.547   0.3538   0.675
V113     V     0.6462   0.453   0.825
V114     V     0.203   0.3538   0.075
V115     V     0.6038   0.425   0.953
V116     V     0.1038   0.297   0.825
V117     V     0.1462   0.325   0.953
V118     V     0.675   0.703   0.8962
V119     V     0.8962   0.547   0.075
V120     V     0.703   0.575   0.8538
V121     V     0.1038   0.453   0.925
V122     V     0.047   0.575   0.8962
V123     V     0.925   0.6038   0.953
V124     V     0.825   0.6038   0.797
V125     V     0.8538   0.547   0.675
V126     V     0.953   0.6462   0.825
V127     V     0.075   0.3962   0.047
V128     V     0.325   0.297   0.1038
V129     V     0.047   0.075   0.3962
V130     V     0.3962   0.575   0.047
V131     V     0.825   0.6462   0.453
V132     V     0.703   0.675   0.3962
V133     V     0.547   0.3962   0.075
V134     V     0.6462   0.797   0.425
V135     V     0.6038   0.825   0.297
V136     V     0.575   0.703   0.3538
V137     V     0.6462   0.325   0.453
V138     V     0.925   0.797   0.6462
V139     V     0.3538   0.175   0.047
V140     V     0.953   0.6038   0.425
V141     V     0.675   0.547   0.3538
V142     V     0.425   0.453   0.1038
V143     V     0.453   0.325   0.1462
V144     V     0.825   0.453   0.1462
V145     V     0.3538   0.675   0.547
V146     V     0.575   0.3962   0.547
V147     V     0.425   0.6038   0.453
V148     V     0.547   0.575   0.3962
V149     V     0.6038   0.453   0.425
V150     V     0.6462   0.425   0.297
V151     V     0.575   0.3538   0.203
V152     V     0.8962   0.675   0.703
V153     V     0.8538   0.703   0.575
V154     V     0.547   0.8962   0.575
V155     V     0.797   0.825   0.6038
V156     V     0.825   0.953   0.6462
V157     V     0.675   0.8538   0.547
V158     V     0.925   0.1038   0.453
V159     V     0.953   0.925   0.6038
V160     V     0.8962   0.047   0.575
V161     V     0.825   0.1038   0.297
V162     V     0.8538   0.047   0.175
V163     V     0.953   0.1462   0.325
V164     V     0.925   0.297   0.1462
V165     V     0.953   0.425   0.1038
V166     V     0.797   0.325   0.1038
V167     V     0.703   0.3962   0.175
V168     V     0.675   0.3538   0.047
V169     V     0.8962   0.175   0.203
V170     V     0.8538   0.203   0.075
V171     V     0.675   0.047   0.8538
V172     V     0.797   0.1038   0.825
V173     V     0.075   0.047   0.8962
V174     V     0.825   0.1462   0.953
V175     V     0.953   0.1038   0.925
V176     V     0.075   0.3538   0.703
V177     V     0.8538   0.175   0.547
V178     V     0.8538   0.075   0.703
V179     V     0.925   0.1462   0.797
V180     V     0.8962   0.203   0.675
V181     V     0.953   0.325   0.6462
V182     V     0.175   0.703   0.3962
V183     V     0.3538   0.547   0.175
V184     V     0.453   0.6462   0.325
V185     V     0.047   0.3962   0.575
V186     V     0.3962   0.675   0.203
V187     V     0.075   0.547   0.3962
V188     V     0.047   0.3538   0.175
V189     V     0.325   0.6038   0.297
V190     V     0.203   0.575   0.3538
V191     V     0.1038   0.425   0.453
V192     V     0.1462   0.453   0.325
loop_
_geom_bond_atom_site_label_1
_geom_bond_atom_site_label_2
_geom_bond_distance
_geom_bond_site_symmetry_2
_ccdc_geom_bond_type
V1     V12    10.0   .     S
V1     V13    10.0   .     S
V1     V112    10.0   .     S
V1     V113    10.0   .     S
V1     V11    10.001   .     S
V2     V20    10.0   .     S
V2     V9    10.0   .     S
V2     V131    10.0   .     S
V2     V132    10.001   .     S
V2     V141    10.0   .     S
V3     V177    10.0   .     S
V3     V83    10.0   .     S
V3     V161    10.0   .     S
V3     V38    10.001   .     S
V3     V158    10.0   .     S
V4     V145    10.0   .     S
V4     V147    10.0   .     S
V4     V182    10.0   .     S
V4     V190    10.001   .     S
V4     V189    10.0   .     S
V5     V77    10.0   .     S
V5     V39    10.0   .     S
V5     V40    10.001   .     S
V5     V75    10.0   .     S
V5     V145    10.0   .     S
V6     V45    10.0   .     S
V6     V31    10.0   .     S
V6     V44    10.0   .     S
V6     V74    10.001   .     S
V6     V73    10.0   .     S
V7     V30    10.0   .     S
V7     V29    10.0   .     S
V7     V177    10.0   .     S
V7     V180    10.001   .     S
V7     V181    10.0   .     S
V8     V151    10.0   .     S
V8     V82    10.0   .     S
V8     V137    10.0   .     S
V8     V83    10.001   .     S
V8     V150    10.0   .     S
V9     V52    10.0   1_655     S
V9     V10    10.0   .     S
V9     V20    10.001   .     S
V9     V140    10.0   .     S
V10     V20    10.0   .     S
V10     V51    10.0   .     S
V10     V43    10.001   .     S
V10     V95    10.0   .     S
V11     V29    10.0   .     S
V11     V30    10.0   .     S
V11     V113    10.0   .     S
V11     V112    10.0   .     S
V12     V93    10.0   .     S
V12     V13    10.001   .     S
V12     V14    10.0   .     S
V12     V57    10.0   .     S
V13     V168    10.0   1_556     S
V13     V14    10.0   .     S
V13     V115    10.0   .     S
V14     V174    10.0   .     S
V14     V172    10.001   .     S
V14     V171    10.0   .     S
V15     V130    10.0   1_556     S
V15     V46    10.0   .     S
V15     V47    10.001   .     S
V15     V44    10.0   .     S
V15     V73    10.0   .     S
V16     V26    10.0   .     S
V16     V24    10.0   .     S
V16     V90    10.0   .     S
V16     V101    10.001   .     S
V16     V105    10.0   .     S
V17     V104    10.0   .     S
V17     V18    10.0   1_545     S
V17     V54    10.001   1_545     S
V17     V38    10.0   .     S
V17     V82    10.0   .     S
V18     V17    10.0   1_565     S
V18     V54    10.0   .     S
V18     V154    10.0   .     S
V18     V157    10.001   .     S
V18     V134    10.0   .     S
V19     V99    10.0   .     S
V19     V100    10.0   .     S
V19     V188    10.0   .     S
V19     V23    10.001   .     S
V19     V192    10.0   .     S
V20     V144    10.0   .     S
V20     V119    10.0   .     S
V21     V88    10.0   .     S
V21     V87    10.0   .     S
V21     V112    10.001   .     S
V21     V111    10.0   .     S
V21     V146    10.0   .     S
V22     V116    10.0   .     S
V22     V176    10.001   .     S
V22     V31    10.0   .     S
V22     V86    10.0   .     S
V22     V121    10.0   .     S
V23     V103    10.0   .     S
V23     V114    10.0   .     S
V23     V192    10.0   .     S
V23     V188    10.0   .     S
V24     V82    10.0   .     S
V24     V25    10.0   .     S
V24     V26    10.001   .     S
V24     V104    10.0   .     S
V25     V26    10.0   .     S
V25     V139    10.0   .     S
V25     V128    10.001   .     S
V25     V143    10.0   .     S
V26     V63    10.0   1_545     S
V26     V92    10.0   .     S
V27     V185    10.0   1_655     S
V27     V28    10.0   .     S
V27     V29    10.0   .     S
V27     V125    10.001   .     S
V27     V181    10.0   .     S
V28     V125    10.0   .     S
V28     V140    10.0   .     S
V28     V153    10.0   .     S
V28     V131    10.001   .     S
V29     V125    10.0   .     S
V29     V30    10.001   .     S
V30     V137    10.0   .     S
V30     V146    10.0   .     S
V31     V74    10.0   .     S
V31     V122    10.0   .     S
V31     V121    10.001   .     S
V32     V37    10.0   .     S
V32     V34    10.0   .     S
V32     V47    10.0   .     S
V32     V58    10.0   .     S
V32     V118    10.001   .     S
V33     V42    10.0   .     S
V33     V41    10.0   .     S
V33     V71    10.001   .     S
V33     V59    10.0   .     S
V33     V186    10.0   .     S
V34     V171    10.0   1_565     S
V34     V36    10.0   .     S
V34     V37    10.001   .     S
V34     V60    10.0   .     S
V35     V154    10.0   .     S
V35     V39    10.0   .     S
V35     V75    10.0   .     S
V35     V109    10.001   1_565     S
V35     V97    10.0   1_565     S
V36     V37    10.0   .     S
V36     V156    10.0   .     S
V36     V157    10.0   .     S
V36     V155    10.001   .     S
V37     V154    10.0   .     S
V37     V39    10.0   .     S
V38     V54    10.0   1_545     S
V38     V83    10.0   .     S
V38     V161    10.0   .     S
V39     V154    10.001   .     S
V39     V40    10.0   .     S
V40     V145    10.0   .     S
V40     V44    10.0   .     S
V40     V45    10.0   .     S
V41     V71    10.0   .     S
V41     V62    10.0   .     S
V41     V64    10.001   .     S
V41     V63    10.0   .     S
V42     V135    10.0   .     S
V42     V56    10.0   .     S
V42     V61    10.0   .     S
V42     V59    10.001   .     S
V43     V55    10.0   .     S
V43     V51    10.0   .     S
V43     V53    10.0   .     S
V43     V95    10.0   .     S
V44     V47    10.0   .     S
V44     V45    10.001   .     S
V45     V87    10.0   .     S
V45     V88    10.0   .     S
V46     V47    10.0   .     S
V46     V115    10.0   .     S
V46     V120    10.0   .     S
V46     V113    10.001   .     S
V47     V118    10.0   .     S
V48     V51    10.0   1_455     S
V48     V68    10.0   .     S
V48     V64    10.0   .     S
V48     V65    10.001   .     S
V48     V66    10.0   .     S
V49     V50    10.0   1_545     S
V49     V162    10.0   .     S
V49     V175    10.0   1_554     S
V49     V174    10.001   1_554     S
V49     V170    10.0   .     S
V50     V49    10.0   1_565     S
V50     V53    10.0   .     S
V50     V162    10.001   1_565     S
V50     V68    10.0   1_655     S
V50     V51    10.0   .     S
V51     V48    10.0   1_655     S
V51     V68    10.001   1_655     S
V52     V9    10.0   1_455     S
V52     V140    10.001   1_455     S
V52     V187    10.0   .     S
V52     V66    10.0   .     S
V52     V182    10.0   .     S
V53     V162    10.0   1_565     S
V53     V55    10.001   .     S
V53     V56    10.0   .     S
V54     V38    10.0   1_565     S
V54     V17    10.001   1_565     S
V54     V56    10.0   .     S
V54     V135    10.0   .     S
V55     V58    10.0   1_554     S
V55     V56    10.0   .     S
V55     V61    10.0   .     S
V56     V135    10.001   .     S
V57     V60    10.0   1_545     S
V57     V171    10.0   .     S
V57     V94    10.0   .     S
V57     V93    10.001   .     S
V58     V55    10.0   1_556     S
V58     V118    10.0   .     S
V58     V61    10.001   1_556     S
V58     V60    10.0   .     S
V59     V92    10.0   1_565     S
V59     V61    10.0   .     S
V59     V63    10.0   .     S
V60     V57    10.0   1_565     S
V60     V171    10.001   1_565     S
V60     V61    10.0   1_556     S
V61     V60    10.0   1_554     S
V61     V58    10.001   1_554     S
V62     V64    10.0   .     S
V62     V70    10.001   1_554     S
V62     V68    10.0   .     S
V62     V72    10.0   1_554     S
V63     V26    10.0   1_565     S
V63     V92    10.001   1_565     S
V63     V64    10.0   .     S
V64     V65    10.0   .     S
V65     V90    10.0   1_565     S
V65     V66    10.0   .     S
V65     V81    10.0   .     S
V66     V182    10.001   .     S
V66     V79    10.0   .     S
V67     V89    10.0   .     S
V67     V69    10.0   .     S
V67     V76    10.001   .     S
V67     V72    10.0   .     S
V67     V78    10.0   .     S
V68     V50    10.0   1_455     S
V68     V51    10.001   1_455     S
V68     V70    10.0   1_554     S
V69     V76    10.0   .     S
V69     V70    10.0   .     S
V69     V173    10.001   1_565     S
V69     V91    10.0   1_565     S
V70     V68    10.0   1_556     S
V70     V72    10.0   .     S
V70     V62    10.001   1_556     S
V70     V173    10.0   1_565     S
V71     V186    10.0   .     S
V71     V73    10.0   1_554     S
V71     V130    10.0   .     S
V72     V62    10.0   1_556     S
V72     V89    10.001   .     S
V72     V74    10.0   .     S
V73     V71    10.0   1_556     S
V73     V130    10.001   1_556     S
V73     V74    10.0   .     S
V74     V89    10.0   .     S
V75     V109    10.0   1_565     S
V75     V76    10.0   .     S
V75     V77    10.001   .     S
V76     V78    10.0   .     S
V76     V77    10.0   .     S
V77     V79    10.0   .     S
V77     V80    10.0   .     S
V78     V159    10.001   1_455     S
V78     V80    10.0   .     S
V78     V138    10.0   1_455     S
V79     V182    10.0   .     S
V79     V80    10.001   .     S
V79     V81    10.0   .     S
V80     V159    10.0   1_455     S
V80     V81    10.0   .     S
V81     V90    10.001   1_565     S
V81     V129    10.0   1_565     S
V82     V83    10.0   .     S
V82     V104    10.001   .     S
V83     V137    10.0   .     S
V84     V85    10.0   .     S
V84     V86    10.0   .     S
V84     V100    10.0   .     S
V84     V191    10.001   .     S
V84     V185    10.0   .     S
V85     V110    10.0   .     S
V85     V86    10.001   .     S
V85     V87    10.0   .     S
V85     V111    10.0   .     S
V86     V176    10.0   .     S
V86     V87    10.0   .     S
V87     V88    10.001   .     S
V88     V147    10.0   .     S
V88     V145    10.0   .     S
V89     V126    10.0   1_455     S
V89     V122    10.0   .     S
V90     V65    10.0   1_545     S
V90     V81    10.001   1_545     S
V90     V129    10.0   .     S
V90     V101    10.0   .     S
V91     V173    10.0   .     S
V91     V69    10.0   1_545     S
V91     V106    10.0   .     S
V91     V96    10.001   .     S
V91     V107    10.0   .     S
V92     V59    10.0   1_545     S
V92     V63    10.001   1_545     S
V92     V94    10.0   1_554     S
V92     V139    10.0   .     S
V93     V108    10.0   .     S
V93     V94    10.0   .     S
V93     V107    10.0   .     S
V94     V92    10.0   1_556     S
V94     V96    10.0   .     S
V94     V139    10.001   1_556     S
V95     V102    10.0   1_554     S
V95     V123    10.001   1_554     S
V95     V119    10.0   .     S
V96     V139    10.0   1_556     S
V96     V106    10.0   .     S
V96     V107    10.0   .     S
V97     V109    10.0   .     S
V97     V35    10.0   1_545     S
V97     V104    10.0   .     S
V97     V110    10.0   .     S
V97     V105    10.001   .     S
V98     V116    10.0   .     S
V98     V106    10.0   .     S
V98     V175    10.001   1_455     S
V98     V173    10.0   .     S
V98     V179    10.0   1_455     S
V99     V163    10.0   1_455     S
V99     V100    10.001   .     S
V99     V101    10.0   .     S
V99     V129    10.0   .     S
V100     V101    10.0   .     S
V100     V191    10.0   .     S
V101     V105    10.0   .     S
V102     V95    10.0   1_556     S
V102     V118    10.0   .     S
V102     V124    10.0   .     S
V102     V120    10.001   .     S
V102     V123    10.0   .     S
V103     V183    10.0   .     S
V103     V114    10.001   .     S
V103     V128    10.0   .     S
V103     V142    10.0   .     S
V104     V105    10.0   .     S
V105     V110    10.0   .     S
V106     V117    10.0   .     S
V106     V116    10.001   .     S
V107     V108    10.001   .     S
V107     V109    10.0   .     S
V108     V111    10.0   .     S
V108     V109    10.0   .     S
V108     V110    10.0   .     S
V109     V35    10.001   1_545     S
V109     V75    10.0   1_545     S
V110     V111    10.001   .     S
V111     V112    10.0   .     S
V112     V146    10.0   .     S
V113     V115    10.0   .     S
V113     V120    10.0   .     S
V114     V117    10.0   1_554     S
V114     V127    10.0   .     S
V114     V128    10.0   .     S
V115     V133    10.0   1_556     S
V115     V168    10.001   1_556     S
V116     V176    10.0   .     S
V116     V117    10.0   .     S
V117     V114    10.0   1_556     S
V117     V121    10.0   .     S
V117     V127    10.001   1_556     S
V118     V120    10.0   .     S
V119     V123    10.0   1_554     S
V119     V165    10.0   .     S
V119     V144    10.001   .     S
V120     V124    10.0   .     S
V121     V127    10.0   1_556     S
V121     V122    10.0   .     S
V122     V123    10.0   1_455     S
V122     V126    10.001   1_455     S
V123     V119    10.0   1_556     S
V123     V95    10.001   1_556     S
V123     V122    10.0   1_655     S
V123     V126    10.0   .     S
V124     V125    10.0   .     S
V124     V152    10.001   .     S
V124     V126    10.0   .     S
V125     V152    10.0   .     S
V126     V89    10.0   1_655     S
V126     V122    10.001   1_655     S
V126     V152    10.0   .     S
V127     V117    10.001   1_554     S
V127     V121    10.0   1_554     S
V127     V165    10.0   1_455     S
V127     V188    10.0   .     S
V128     V139    10.0   .     S
V128     V143    10.0   .     S
V129     V81    10.0   1_545     S
V129     V158    10.0   1_455     S
V129     V163    10.001   1_455     S
V130     V15    10.0   1_554     S
V130     V73    10.001   1_554     S
V130     V142    10.0   .     S
V130     V183    10.0   .     S
V131     V132    10.0   .     S
V131     V140    10.0   .     S
V131     V153    10.0   .     S
V132     V141    10.0   .     S
V132     V134    10.0   .     S
V132     V136    10.0   .     S
V133     V115    10.0   1_554     S
V133     V142    10.0   .     S
V133     V151    10.0   .     S
V133     V143    10.001   .     S
V133     V168    10.0   .     S
V134     V157    10.0   .     S
V134     V135    10.0   .     S
V134     V136    10.001   .     S
V135     V136    10.0   .     S
V136     V184    10.0   .     S
V136     V148    10.0   .     S
V137     V146    10.001   .     S
V137     V149    10.0   .     S
V138     V159    10.0   .     S
V138     V78    10.0   1_655     S
V138     V152    10.0   .     S
V138     V155    10.0   .     S
V138     V153    10.001   .     S
V139     V94    10.001   1_554     S
V139     V96    10.0   1_554     S
V140     V52    10.001   1_655     S
V140     V187    10.0   1_655     S
V141     V149    10.001   .     S
V141     V148    10.0   .     S
V141     V150    10.0   .     S
V142     V183    10.001   .     S
V142     V143    10.0   .     S
V143     V151    10.0   .     S
V144     V167    10.0   .     S
V144     V165    10.0   .     S
V144     V166    10.0   .     S
V145     V147    10.001   .     S
V146     V149    10.0   .     S
V147     V148    10.0   .     S
V147     V184    10.0   .     S
V148     V184    10.001   .     S
V148     V149    10.0   .     S
V149     V150    10.0   .     S
V150     V151    10.001   .     S
V150     V167    10.0   .     S
V151     V167    10.0   .     S
V152     V153    10.0   .     S
V153     V155    10.0   .     S
V154     V157    10.0   .     S
V155     V156    10.0   .     S
V155     V157    10.0   .     S
V156     V160    10.001   1_565     S
V156     V159    10.0   .     S
V156     V178    10.0   1_565     S
V158     V129    10.0   1_655     S
V158     V177    10.001   .     S
V158     V160    10.0   .     S
V158     V163    10.0   .     S
V159     V78    10.001   1_655     S
V159     V80    10.0   1_655     S
V159     V160    10.0   1_565     S
V160     V159    10.0   1_545     S
V160     V177    10.0   .     S
V160     V178    10.0   .     S
V160     V156    10.001   1_545     S
V161     V162    10.0   .     S
V161     V169    10.001   .     S
V161     V163    10.0   .     S
V162     V50    10.001   1_545     S
V162     V53    10.0   1_545     S
V162     V169    10.0   .     S
V163     V99    10.0   1_655     S
V163     V129    10.001   1_655     S
V163     V169    10.0   .     S
V164     V188    10.0   1_655     S
V164     V165    10.0   .     S
V164     V166    10.0   .     S
V164     V170    10.001   .     S
V164     V169    10.0   .     S
V165     V127    10.0   1_655     S
V165     V188    10.001   1_655     S
V166     V170    10.0   .     S
V166     V167    10.001   .     S
V166     V168    10.0   .     S
V167     V168    10.0   .     S
V168     V13    10.0   1_554     S
V168     V115    10.001   1_554     S
V169     V170    10.0   .     S
V170     V174    10.0   1_554     S
V171     V34    10.0   1_545     S
V171     V60    10.001   1_545     S
V171     V172    10.0   .     S
V172     V178    10.0   .     S
V172     V174    10.0   .     S
V172     V179    10.0   .     S
V173     V70    10.0   1_545     S
V173     V69    10.001   1_545     S
V173     V175    10.0   1_455     S
V174     V170    10.0   1_556     S
V174     V175    10.0   .     S
V174     V49    10.001   1_556     S
V175     V173    10.0   1_655     S
V175     V179    10.0   .     S
V175     V98    10.001   1_655     S
V175     V49    10.0   1_556     S
V176     V181    10.0   1_455     S
V176     V185    10.0   .     S
V177     V180    10.0   .     S
V178     V156    10.0   1_545     S
V178     V180    10.0   .     S
V178     V179    10.001   .     S
V179     V98    10.0   1_655     S
V179     V180    10.0   .     S
V180     V181    10.0   .     S
V181     V176    10.0   1_655     S
V181     V185    10.001   1_655     S
V182     V190    10.0   .     S
V183     V189    10.0   .     S
V183     V186    10.0   .     S
V184     V186    10.0   .     S
V184     V189    10.0   .     S
V185     V27    10.0   1_455     S
V185     V181    10.001   1_455     S
V185     V191    10.0   .     S
V186     V189    10.001   .     S
V187     V140    10.0   1_455     S
V187     V191    10.0   .     S
V187     V190    10.0   .     S
V187     V192    10.001   .     S
V188     V164    10.0   1_455     S
V188     V165    10.001   1_455     S
V189     V190    10.0   .     S
V190     V192    10.0   .     S
V191     V192    10.0   .     S
