data_fiv
_audit_creation_date              2020-02-04
_audit_creation_method            'Pymatgen'
_symmetry_space_group_name_H-M    'P1'
_symmetry_Int_Tables_number       1
loop_
_symmetry_equiv_pos_as_xyz
  x,y,z
_cell_length_a                    96.7325
_cell_length_b                    96.7325
_cell_length_c                    96.7325
_cell_angle_alpha                 90.0
_cell_angle_beta                 90.0
_cell_angle_gamma                 90.0
loop_
_atom_site_label
_atom_site_type_symbol
_atom_site_fract_x
_atom_site_fract_y
_atom_site_fract_z
He1     He     0.75   0.75   0.9483
He2     He     0.75   0.75   0.0517
He3     He     0.75   0.9483   0.75
He4     He     0.75   0.0517   0.75
He5     He     0.25   0.5517   0.75
He6     He     0.25   0.4483   0.75
He7     He     0.5517   0.75   0.75
He8     He     0.4483   0.75   0.75
He9     He     0.9483   0.75   0.75
He10     He     0.0517   0.75   0.75
He11     He     0.75   0.75   0.4483
He12     He     0.75   0.75   0.5517
He13     He     0.75   0.4483   0.75
He14     He     0.75   0.5517   0.75
He15     He     0.25   0.75   0.5517
He16     He     0.25   0.75   0.4483
He17     He     0.25   0.75   0.9483
He18     He     0.25   0.75   0.0517
He19     He     0.5517   0.25   0.75
He20     He     0.4483   0.25   0.75
He21     He     0.25   0.9483   0.75
He22     He     0.25   0.0517   0.75
He23     He     0.75   0.9483   0.25
He24     He     0.75   0.0517   0.25
He25     He     0.9483   0.75   0.25
He26     He     0.0517   0.75   0.25
He27     He     0.75   0.5517   0.25
He28     He     0.75   0.4483   0.25
He29     He     0.5517   0.75   0.25
He30     He     0.4483   0.75   0.25
He31     He     0.75   0.25   0.5517
He32     He     0.75   0.25   0.4483
He33     He     0.75   0.25   0.9483
He34     He     0.75   0.25   0.0517
He35     He     0.9483   0.25   0.75
He36     He     0.0517   0.25   0.75
He37     He     0.25   0.5517   0.25
He38     He     0.25   0.4483   0.25
He39     He     0.9483   0.25   0.25
He40     He     0.0517   0.25   0.25
He41     He     0.25   0.25   0.5517
He42     He     0.25   0.25   0.4483
He43     He     0.25   0.25   0.9483
He44     He     0.25   0.25   0.0517
He45     He     0.5517   0.25   0.25
He46     He     0.4483   0.25   0.25
He47     He     0.25   0.9483   0.25
He48     He     0.25   0.0517   0.25
Ti49     Ti     0.5   0.4483   0.6317
Ti50     Ti     0.5   0.5517   0.6317
Er51     Er     0.5   0.5998   0.7232
Er52     Er     0.5   0.4002   0.7232
Er53     Er     0.5998   0.5   0.7768
Er54     Er     0.4002   0.5   0.7768
V55     V     0.5   0.5   0.75
Ti56     Ti     0.5517   0.5   0.8683
Ti57     Ti     0.4483   0.5   0.8683
Ti58     Ti     0.6317   0.5   0.5517
Ti59     Ti     0.6317   0.5   0.4483
Er60     Er     0.7232   0.5   0.5998
Er61     Er     0.7232   0.5   0.4002
Er62     Er     0.7768   0.4002   0.5
Er63     Er     0.7768   0.5998   0.5
V64     V     0.75   0.5   0.5
Ti65     Ti     0.8683   0.4483   0.5
Ti66     Ti     0.8683   0.5517   0.5
Ti67     Ti     0.5517   0.6317   0.5
Ti68     Ti     0.4483   0.6317   0.5
Er69     Er     0.5   0.7768   0.5998
Er70     Er     0.5   0.7768   0.4002
Er71     Er     0.5998   0.7232   0.5
Er72     Er     0.4002   0.7232   0.5
V73     V     0.5   0.75   0.5
Ti74     Ti     0.5   0.8683   0.4483
Ti75     Ti     0.5   0.8683   0.5517
Ti76     Ti     0.5517   0.3683   0.5
Ti77     Ti     0.4483   0.3683   0.5
Er78     Er     0.5   0.2232   0.5998
Er79     Er     0.4002   0.2768   0.5
Er80     Er     0.5   0.2232   0.4002
Er81     Er     0.5998   0.2768   0.5
V82     V     0.5   0.25   0.5
Ti83     Ti     0.5   0.1317   0.5517
Ti84     Ti     0.5   0.1317   0.4483
Ti85     Ti     0.5517   0.5   0.1317
Ti86     Ti     0.4483   0.5   0.1317
Er87     Er     0.5   0.5998   0.2768
Er88     Er     0.5998   0.5   0.2232
Er89     Er     0.4002   0.5   0.2232
Er90     Er     0.5   0.4002   0.2768
V91     V     0.5   0.5   0.25
Ti92     Ti     0.5   0.4483   0.3683
Ti93     Ti     0.5   0.5517   0.3683
Ti94     Ti     0.1317   0.5517   0.5
Ti95     Ti     0.1317   0.4483   0.5
Er96     Er     0.2232   0.5998   0.5
Er97     Er     0.2768   0.5   0.5998
Er98     Er     0.2232   0.4002   0.5
Er99     Er     0.2768   0.5   0.4002
V100     V     0.25   0.5   0.5
Ti101     Ti     0.3683   0.5   0.4483
Ti102     Ti     0.3683   0.5   0.5517
Ti103     Ti     0.8683   0.5   0.9483
Ti104     Ti     0.8683   0.5   0.0517
Er105     Er     0.7232   0.5998   0.0
Er106     Er     0.7768   0.5   0.9002
Er107     Er     0.7768   0.5   0.0998
Er108     Er     0.7232   0.4002   0.0
V109     V     0.75   0.5   0.0
Ti110     Ti     0.6317   0.5517   0.0
Ti111     Ti     0.6317   0.4483   0.0
Ti112     Ti     0.0   0.6317   0.4483
Ti113     Ti     0.0   0.6317   0.5517
Er114     Er     0.0   0.7232   0.5998
Er115     Er     0.9002   0.7768   0.5
Er116     Er     0.0998   0.7768   0.5
Er117     Er     0.0   0.7232   0.4002
V118     V     0.0   0.75   0.5
Ti119     Ti     0.9483   0.8683   0.5
Ti120     Ti     0.0517   0.8683   0.5
Ti121     Ti     0.5517   0.0   0.6317
Ti122     Ti     0.4483   0.0   0.6317
Er123     Er     0.5   0.9002   0.7768
Er124     Er     0.5   0.0998   0.7768
Er125     Er     0.5998   0.0   0.7232
Er126     Er     0.4002   0.0   0.7232
V127     V     0.5   0.0   0.75
Ti128     Ti     0.5   0.9483   0.8683
Ti129     Ti     0.5   0.0517   0.8683
Ti130     Ti     0.8683   0.0   0.5517
Ti131     Ti     0.8683   0.0   0.4483
Er132     Er     0.7768   0.0   0.5998
Er133     Er     0.7768   0.0   0.4002
Er134     Er     0.7232   0.9002   0.5
Er135     Er     0.7232   0.0998   0.5
V136     V     0.75   0.0   0.5
Ti137     Ti     0.6317   0.9483   0.5
Ti138     Ti     0.6317   0.0517   0.5
Ti139     Ti     0.5   0.6317   0.9483
Ti140     Ti     0.5   0.6317   0.0517
Er141     Er     0.5   0.7232   0.9002
Er142     Er     0.4002   0.7768   0.0
Er143     Er     0.5   0.7232   0.0998
Er144     Er     0.5998   0.7768   0.0
V145     V     0.5   0.75   0.0
Ti146     Ti     0.5517   0.8683   0.0
Ti147     Ti     0.4483   0.8683   0.0
Ti148     Ti     0.9483   0.5   0.6317
Ti149     Ti     0.0517   0.5   0.6317
Er150     Er     0.9002   0.5   0.7232
Er151     Er     0.0998   0.5   0.7232
Er152     Er     0.0   0.5998   0.7768
Er153     Er     0.0   0.4002   0.7768
V154     V     0.0   0.5   0.75
Ti155     Ti     0.0   0.5517   0.8683
Ti156     Ti     0.0   0.4483   0.8683
H157     H     0.9128   0.8451   0.7305
H158     H     0.8451   0.9128   0.7695
H159     H     0.7305   0.9128   0.8451
H160     H     0.7695   0.8451   0.9128
S161     S     0.8542   0.8542   0.6458
Ce162     Ce     0.9138   0.9138   0.5862
H163     H     0.9128   0.7305   0.6549
H164     H     0.8451   0.7695   0.5872
S165     S     0.6458   0.8542   0.8542
Ce166     Ce     0.5862   0.9138   0.9138
H167     H     0.6549   0.9128   0.7305
H168     H     0.5872   0.8451   0.7695
S169     S     0.8542   0.6458   0.8542
Ce170     Ce     0.9138   0.5862   0.9138
H171     H     0.7305   0.6549   0.9128
H172     H     0.7695   0.5872   0.8451
H173     H     0.9128   0.6549   0.7695
H174     H     0.8451   0.5872   0.7305
S175     S     0.8542   0.6458   0.6458
Ce176     Ce     0.9138   0.5862   0.5862
H177     H     0.7305   0.5872   0.6549
H178     H     0.7695   0.6549   0.5872
H179     H     0.7695   0.9128   0.6549
H180     H     0.7305   0.8451   0.5872
S181     S     0.6458   0.8542   0.6458
Ce182     Ce     0.5862   0.9138   0.5862
H183     H     0.5872   0.7695   0.6549
H184     H     0.6549   0.7305   0.5872
S185     S     0.6458   0.6458   0.6458
Ce186     Ce     0.5862   0.5862   0.5862
H187     H     0.6549   0.5872   0.7695
H188     H     0.5872   0.6549   0.7305
S189     S     0.6458   0.6458   0.8542
Ce190     Ce     0.5862   0.5862   0.9138
H191     H     0.6549   0.7695   0.9128
H192     H     0.5872   0.7305   0.8451
Ce193     Ce     0.9138   0.9138   0.9138
S194     S     0.8542   0.8542   0.8542
H195     H     0.8451   0.7305   0.9128
H196     H     0.9128   0.7695   0.8451
Ti197     Ti     0.6317   0.0   0.9483
Ti198     Ti     0.6317   0.0   0.0517
Er199     Er     0.7768   0.9002   0.0
Er200     Er     0.7768   0.0998   0.0
Er201     Er     0.7232   0.0   0.9002
Er202     Er     0.7232   0.0   0.0998
V203     V     0.75   0.0   0.0
Ti204     Ti     0.8683   0.9483   0.0
Ti205     Ti     0.8683   0.0517   0.0
Ti206     Ti     0.9483   0.6317   0.0
Ti207     Ti     0.0517   0.6317   0.0
Er208     Er     0.0   0.7768   0.9002
Er209     Er     0.0   0.7768   0.0998
Er210     Er     0.9002   0.7232   0.0
Er211     Er     0.0998   0.7232   0.0
V212     V     0.0   0.75   0.0
Ti213     Ti     0.0   0.8683   0.9483
Ti214     Ti     0.0   0.8683   0.0517
Ti215     Ti     0.0   0.9483   0.6317
Ti216     Ti     0.0   0.0517   0.6317
Er217     Er     0.0   0.9002   0.7232
Er218     Er     0.9002   0.0   0.7768
Er219     Er     0.0   0.0998   0.7232
Er220     Er     0.0998   0.0   0.7768
V221     V     0.0   0.0   0.75
Ti222     Ti     0.9483   0.0   0.8683
Ti223     Ti     0.0517   0.0   0.8683
Ti224     Ti     0.5   0.3683   0.9483
Ti225     Ti     0.5   0.3683   0.0517
Er226     Er     0.5   0.2768   0.9002
Er227     Er     0.5   0.2768   0.0998
Er228     Er     0.5998   0.2232   0.0
Er229     Er     0.4002   0.2232   0.0
V230     V     0.5   0.25   0.0
Ti231     Ti     0.4483   0.1317   0.0
Ti232     Ti     0.5517   0.1317   0.0
Ti233     Ti     0.3683   0.9483   0.5
Ti234     Ti     0.3683   0.0517   0.5
Er235     Er     0.2232   0.0   0.5998
Er236     Er     0.2768   0.0998   0.5
Er237     Er     0.2768   0.9002   0.5
Er238     Er     0.2232   0.0   0.4002
V239     V     0.25   0.0   0.5
Ti240     Ti     0.1317   0.0   0.4483
Ti241     Ti     0.1317   0.0   0.5517
H242     H     0.3451   0.0872   0.7305
H243     H     0.4128   0.1549   0.7695
H244     H     0.0872   0.1549   0.7305
H245     H     0.1549   0.0872   0.7695
S246     S     0.1458   0.1458   0.8542
Ce247     Ce     0.0862   0.0862   0.9138
H248     H     0.1549   0.2695   0.9128
H249     H     0.0872   0.2305   0.8451
S250     S     0.3542   0.1458   0.8542
Ce251     Ce     0.4138   0.0862   0.9138
H252     H     0.2305   0.1549   0.9128
H253     H     0.2695   0.0872   0.8451
S254     S     0.1458   0.3542   0.8542
Ce255     Ce     0.0862   0.4138   0.9138
H256     H     0.2695   0.3451   0.9128
H257     H     0.2305   0.4128   0.8451
Ce258     Ce     0.4138   0.4138   0.9138
S259     S     0.3542   0.3542   0.8542
H260     H     0.3451   0.2305   0.9128
H261     H     0.4128   0.2695   0.8451
H262     H     0.4128   0.3451   0.7305
H263     H     0.3451   0.4128   0.7695
S264     S     0.3542   0.3542   0.6458
Ce265     Ce     0.4138   0.4138   0.5862
H266     H     0.3451   0.2695   0.5872
H267     H     0.4128   0.2305   0.6549
H268     H     0.1549   0.4128   0.7305
H269     H     0.0872   0.3451   0.7695
S270     S     0.3542   0.1458   0.6458
Ce271     Ce     0.4138   0.0862   0.5862
H272     H     0.2695   0.1549   0.5872
H273     H     0.2305   0.0872   0.6549
S274     S     0.1458   0.3542   0.6458
Ce275     Ce     0.0862   0.4138   0.5862
H276     H     0.2305   0.3451   0.5872
H277     H     0.2695   0.4128   0.6549
S278     S     0.1458   0.1458   0.6458
Ce279     Ce     0.0862   0.0862   0.5862
H280     H     0.0872   0.2695   0.6549
H281     H     0.1549   0.2305   0.5872
Ti282     Ti     0.3683   0.4483   0.0
Ti283     Ti     0.3683   0.5517   0.0
Er284     Er     0.2768   0.5998   0.0
Er285     Er     0.2232   0.5   0.0998
Er286     Er     0.2232   0.5   0.9002
Er287     Er     0.2768   0.4002   0.0
V288     V     0.25   0.5   0.0
Ti289     Ti     0.1317   0.5   0.9483
Ti290     Ti     0.1317   0.5   0.0517
Ti291     Ti     0.1317   0.9483   0.0
Ti292     Ti     0.1317   0.0517   0.0
Er293     Er     0.2232   0.9002   0.0
Er294     Er     0.2768   0.0   0.0998
Er295     Er     0.2768   0.0   0.9002
Er296     Er     0.2232   0.0998   0.0
V297     V     0.25   0.0   0.0
Ti298     Ti     0.3683   0.0   0.9483
Ti299     Ti     0.3683   0.0   0.0517
H300     H     0.3451   0.9128   0.7305
H301     H     0.4128   0.8451   0.7695
H302     H     0.3451   0.7695   0.9128
H303     H     0.4128   0.7305   0.8451
H304     H     0.1549   0.9128   0.7695
H305     H     0.0872   0.8451   0.7305
H306     H     0.0872   0.6549   0.7695
H307     H     0.1549   0.5872   0.7305
H308     H     0.3451   0.7305   0.5872
H309     H     0.4128   0.7695   0.6549
S310     S     0.1458   0.6458   0.6458
Ce311     Ce     0.0862   0.5862   0.5862
S312     S     0.3542   0.6458   0.6458
Ce313     Ce     0.4138   0.5862   0.5862
H314     H     0.2695   0.5872   0.6549
H315     H     0.2305   0.6549   0.5872
S316     S     0.3542   0.8542   0.6458
Ce317     Ce     0.4138   0.9138   0.5862
H318     H     0.2305   0.9128   0.6549
H319     H     0.2695   0.8451   0.5872
S320     S     0.1458   0.8542   0.6458
Ce321     Ce     0.0862   0.9138   0.5862
H322     H     0.0872   0.7305   0.6549
H323     H     0.1549   0.7695   0.5872
H324     H     0.4128   0.6549   0.7305
H325     H     0.3451   0.5872   0.7695
S326     S     0.3542   0.6458   0.8542
Ce327     Ce     0.4138   0.5862   0.9138
S328     S     0.1458   0.6458   0.8542
Ce329     Ce     0.0862   0.5862   0.9138
H330     H     0.2695   0.6549   0.9128
H331     H     0.2305   0.5872   0.8451
H332     H     0.1549   0.7305   0.9128
H333     H     0.0872   0.7695   0.8451
S334     S     0.1458   0.8542   0.8542
Ce335     Ce     0.0862   0.9138   0.9138
Ce336     Ce     0.4138   0.9138   0.9138
S337     S     0.3542   0.8542   0.8542
H338     H     0.2695   0.9128   0.8451
H339     H     0.2305   0.8451   0.9128
Ti340     Ti     0.0   0.4483   0.1317
Ti341     Ti     0.0   0.5517   0.1317
Er342     Er     0.9002   0.5   0.2768
Er343     Er     0.0998   0.5   0.2768
Er344     Er     0.0   0.5998   0.2232
Er345     Er     0.0   0.4002   0.2232
V346     V     0.0   0.5   0.25
Ti347     Ti     0.9483   0.5   0.3683
Ti348     Ti     0.0517   0.5   0.3683
S349     S     0.3542   0.3542   0.1458
Ce350     Ce     0.4138   0.4138   0.0862
H351     H     0.2695   0.3451   0.0872
H352     H     0.2305   0.4128   0.1549
H353     H     0.3451   0.2305   0.0872
H354     H     0.4128   0.2695   0.1549
S355     S     0.3542   0.1458   0.1458
Ce356     Ce     0.4138   0.0862   0.0862
H357     H     0.2695   0.0872   0.1549
H358     H     0.2305   0.1549   0.0872
H359     H     0.4128   0.3451   0.2695
H360     H     0.3451   0.4128   0.2305
S361     S     0.3542   0.3542   0.3542
Ce362     Ce     0.4138   0.4138   0.4138
H363     H     0.2695   0.4128   0.3451
H364     H     0.2305   0.3451   0.4128
H365     H     0.3451   0.0872   0.2695
H366     H     0.4128   0.1549   0.2305
S367     S     0.3542   0.1458   0.3542
Ce368     Ce     0.4138   0.0862   0.4138
H369     H     0.3451   0.2695   0.4128
H370     H     0.4128   0.2305   0.3451
H371     H     0.0872   0.1549   0.2695
H372     H     0.1549   0.0872   0.2305
S373     S     0.1458   0.1458   0.3542
Ce374     Ce     0.0862   0.0862   0.4138
H375     H     0.2305   0.0872   0.3451
H376     H     0.2695   0.1549   0.4128
S377     S     0.1458   0.1458   0.1458
Ce378     Ce     0.0862   0.0862   0.0862
H379     H     0.1549   0.2695   0.0872
H380     H     0.0872   0.2305   0.1549
S381     S     0.1458   0.3542   0.3542
Ce382     Ce     0.0862   0.4138   0.4138
H383     H     0.0872   0.2695   0.3451
H384     H     0.1549   0.2305   0.4128
S385     S     0.1458   0.3542   0.1458
Ce386     Ce     0.0862   0.4138   0.0862
H387     H     0.0872   0.3451   0.2305
H388     H     0.1549   0.4128   0.2695
Ti389     Ti     0.9483   0.3683   0.0
Ti390     Ti     0.0517   0.3683   0.0
Er391     Er     0.0   0.2232   0.9002
Er392     Er     0.9002   0.2768   0.0
Er393     Er     0.0   0.2232   0.0998
Er394     Er     0.0998   0.2768   0.0
V395     V     0.0   0.25   0.0
Ti396     Ti     0.0   0.1317   0.9483
Ti397     Ti     0.0   0.1317   0.0517
H398     H     0.3451   0.7305   0.4128
H399     H     0.4128   0.7695   0.3451
H400     H     0.0872   0.7305   0.3451
H401     H     0.1549   0.7695   0.4128
S402     S     0.1458   0.6458   0.3542
Ce403     Ce     0.0862   0.5862   0.4138
H404     H     0.1549   0.5872   0.2695
H405     H     0.0872   0.6549   0.2305
S406     S     0.3542   0.6458   0.3542
Ce407     Ce     0.4138   0.5862   0.4138
H408     H     0.2695   0.5872   0.3451
H409     H     0.2305   0.6549   0.4128
H410     H     0.3451   0.5872   0.2305
H411     H     0.4128   0.6549   0.2695
S412     S     0.3542   0.6458   0.1458
Ce413     Ce     0.4138   0.5862   0.0862
S414     S     0.1458   0.6458   0.1458
Ce415     Ce     0.0862   0.5862   0.0862
H416     H     0.2305   0.5872   0.1549
H417     H     0.2695   0.6549   0.0872
H418     H     0.1549   0.7305   0.0872
H419     H     0.0872   0.7695   0.1549
H420     H     0.3451   0.7695   0.0872
H421     H     0.4128   0.7305   0.1549
S422     S     0.1458   0.8542   0.3542
Ce423     Ce     0.0862   0.9138   0.4138
H424     H     0.1549   0.9128   0.2305
H425     H     0.0872   0.8451   0.2695
H426     H     0.2305   0.9128   0.3451
H427     H     0.2695   0.8451   0.4128
S428     S     0.3542   0.8542   0.1458
Ce429     Ce     0.4138   0.9138   0.0862
Ce430     Ce     0.4138   0.9138   0.4138
S431     S     0.3542   0.8542   0.3542
H432     H     0.3451   0.9128   0.2695
H433     H     0.4128   0.8451   0.2305
S434     S     0.1458   0.8542   0.1458
Ce435     Ce     0.0862   0.9138   0.0862
H436     H     0.2695   0.9128   0.1549
H437     H     0.2305   0.8451   0.0872
Ti438     Ti     0.4483   0.0   0.3683
Ti439     Ti     0.5517   0.0   0.3683
Er440     Er     0.5   0.9002   0.2232
Er441     Er     0.5   0.0998   0.2232
Er442     Er     0.5998   0.0   0.2768
Er443     Er     0.4002   0.0   0.2768
V444     V     0.5   0.0   0.25
Ti445     Ti     0.5   0.9483   0.1317
Ti446     Ti     0.5   0.0517   0.1317
H447     H     0.7305   0.3451   0.9128
H448     H     0.7695   0.4128   0.8451
H449     H     0.9128   0.1549   0.7305
H450     H     0.8451   0.0872   0.7695
H451     H     0.9128   0.3451   0.7695
H452     H     0.8451   0.4128   0.7305
S453     S     0.8542   0.3542   0.8542
Ce454     Ce     0.9138   0.4138   0.9138
S455     S     0.8542   0.1458   0.8542
Ce456     Ce     0.9138   0.0862   0.9138
H457     H     0.8451   0.2695   0.9128
H458     H     0.9128   0.2305   0.8451
H459     H     0.7695   0.1549   0.9128
H460     H     0.7305   0.0872   0.8451
S461     S     0.6458   0.3542   0.8542
Ce462     Ce     0.5862   0.4138   0.9138
H463     H     0.6549   0.2305   0.9128
H464     H     0.5872   0.2695   0.8451
S465     S     0.6458   0.1458   0.8542
Ce466     Ce     0.5862   0.0862   0.9138
H467     H     0.6549   0.0872   0.7305
H468     H     0.5872   0.1549   0.7695
H469     H     0.7305   0.4128   0.6549
H470     H     0.7695   0.3451   0.5872
S471     S     0.8542   0.3542   0.6458
Ce472     Ce     0.9138   0.4138   0.5862
S473     S     0.8542   0.1458   0.6458
Ce474     Ce     0.9138   0.0862   0.5862
H475     H     0.9128   0.2695   0.6549
H476     H     0.8451   0.2305   0.5872
H477     H     0.7305   0.1549   0.5872
H478     H     0.7695   0.0872   0.6549
H479     H     0.5872   0.3451   0.7305
H480     H     0.6549   0.4128   0.7695
S481     S     0.6458   0.1458   0.6458
Ce482     Ce     0.5862   0.0862   0.5862
S483     S     0.6458   0.3542   0.6458
Ce484     Ce     0.5862   0.4138   0.5862
H485     H     0.6549   0.2695   0.5872
H486     H     0.5872   0.2305   0.6549
Ti487     Ti     0.0   0.3683   0.5517
Ti488     Ti     0.0   0.3683   0.4483
Er489     Er     0.0   0.2768   0.5998
Er490     Er     0.9002   0.2232   0.5
Er491     Er     0.0998   0.2232   0.5
Er492     Er     0.0   0.2768   0.4002
V493     V     0.0   0.25   0.5
Ti494     Ti     0.9483   0.1317   0.5
Ti495     Ti     0.0517   0.1317   0.5
H496     H     0.9128   0.7305   0.3451
H497     H     0.8451   0.7695   0.4128
H498     H     0.7695   0.9128   0.3451
H499     H     0.7305   0.8451   0.4128
S500     S     0.8542   0.6458   0.3542
Ce501     Ce     0.9138   0.5862   0.4138
H502     H     0.9128   0.6549   0.2305
H503     H     0.8451   0.5872   0.2695
H504     H     0.7305   0.9128   0.1549
H505     H     0.7695   0.8451   0.0872
S506     S     0.8542   0.8542   0.1458
Ce507     Ce     0.9138   0.9138   0.0862
Ce508     Ce     0.9138   0.9138   0.4138
S509     S     0.8542   0.8542   0.3542
H510     H     0.9128   0.8451   0.2695
H511     H     0.8451   0.9128   0.2305
H512     H     0.9128   0.7695   0.1549
H513     H     0.8451   0.7305   0.0872
S514     S     0.8542   0.6458   0.1458
Ce515     Ce     0.9138   0.5862   0.0862
H516     H     0.7305   0.6549   0.0872
H517     H     0.7695   0.5872   0.1549
S518     S     0.6458   0.8542   0.1458
Ce519     Ce     0.5862   0.9138   0.0862
H520     H     0.6549   0.7305   0.4128
H521     H     0.5872   0.7695   0.3451
S522     S     0.6458   0.8542   0.3542
Ce523     Ce     0.5862   0.9138   0.4138
H524     H     0.6549   0.9128   0.2695
H525     H     0.5872   0.8451   0.2305
H526     H     0.6549   0.7695   0.0872
H527     H     0.5872   0.7305   0.1549
H528     H     0.7305   0.5872   0.3451
H529     H     0.7695   0.6549   0.4128
S530     S     0.6458   0.6458   0.1458
Ce531     Ce     0.5862   0.5862   0.0862
S532     S     0.6458   0.6458   0.3542
Ce533     Ce     0.5862   0.5862   0.4138
H534     H     0.5872   0.6549   0.2695
H535     H     0.6549   0.5872   0.2305
Ti536     Ti     0.0   0.9483   0.3683
Ti537     Ti     0.0   0.0517   0.3683
Er538     Er     0.9002   0.0   0.2232
Er539     Er     0.0   0.9002   0.2768
Er540     Er     0.0998   0.0   0.2232
Er541     Er     0.0   0.0998   0.2768
V542     V     0.0   0.0   0.25
Ti543     Ti     0.9483   0.0   0.1317
Ti544     Ti     0.0517   0.0   0.1317
H545     H     0.7305   0.3451   0.0872
H546     H     0.7695   0.4128   0.1549
H547     H     0.7305   0.4128   0.3451
H548     H     0.7695   0.3451   0.4128
S549     S     0.6458   0.1458   0.1458
Ce550     Ce     0.5862   0.0862   0.0862
S551     S     0.6458   0.3542   0.3542
Ce552     Ce     0.5862   0.4138   0.4138
H553     H     0.5872   0.2305   0.3451
H554     H     0.6549   0.2695   0.4128
S555     S     0.6458   0.1458   0.3542
Ce556     Ce     0.5862   0.0862   0.4138
H557     H     0.6549   0.0872   0.2695
H558     H     0.5872   0.1549   0.2305
H559     H     0.5872   0.3451   0.2695
H560     H     0.6549   0.4128   0.2305
S561     S     0.6458   0.3542   0.1458
Ce562     Ce     0.5862   0.4138   0.0862
H563     H     0.5872   0.2695   0.1549
H564     H     0.6549   0.2305   0.0872
H565     H     0.7305   0.0872   0.1549
H566     H     0.7695   0.1549   0.0872
H567     H     0.7695   0.0872   0.3451
H568     H     0.7305   0.1549   0.4128
S569     S     0.8542   0.3542   0.1458
Ce570     Ce     0.9138   0.4138   0.0862
H571     H     0.9128   0.2305   0.1549
H572     H     0.8451   0.2695   0.0872
H573     H     0.9128   0.3451   0.2305
H574     H     0.8451   0.4128   0.2695
S575     S     0.8542   0.3542   0.3542
Ce576     Ce     0.9138   0.4138   0.4138
S577     S     0.8542   0.1458   0.3542
Ce578     Ce     0.9138   0.0862   0.4138
H579     H     0.9128   0.2695   0.3451
H580     H     0.8451   0.2305   0.4128
S581     S     0.8542   0.1458   0.1458
Ce582     Ce     0.9138   0.0862   0.0862
H583     H     0.9128   0.1549   0.2695
H584     H     0.8451   0.0872   0.2305
loop_
_geom_bond_atom_site_label_1
_geom_bond_atom_site_label_2
_geom_bond_distance
_geom_bond_site_symmetry_2
_ccdc_geom_bond_type
He1     H160    10.0   .     S
He1     H195    10.0   .     S
He1     H191    10.0   .     S
He1     H171    10.0   .     S
He1     He2    10.0   1_556     S
He2     H505    10.0   .     S
He2     H513    10.0   .     S
He2     H526    10.0   .     S
He2     H516    10.0   .     S
He2     He1    10.0   1_554     S
He3     H159    10.0   .     S
He3     H158    10.0   .     S
He3     H179    10.0   .     S
He3     H167    10.0   .     S
He3     He4    10.0   1_565     S
He4     H450    10.0   .     S
He4     H460    10.0   .     S
He4     H478    10.0   .     S
He4     H467    10.0   .     S
He4     He3    10.0   1_545     S
He5     H331    10.0   .     S
He5     H325    10.0   .     S
He5     H307    10.0   .     S
He5     H314    10.0   .     S
He5     He6    10.0   .     S
He6     H257    10.0   .     S
He6     H263    10.0   .     S
He6     H268    10.0   .     S
He6     H277    10.0   .     S
He7     H192    10.0   .     S
He7     H168    10.0   .     S
He7     H183    10.0   .     S
He7     H188    10.0   .     S
He7     He8    10.0   .     S
He8     H301    10.0   .     S
He8     H303    10.0   .     S
He8     H309    10.0   .     S
He8     H324    10.0   .     S
He9     H196    10.0   .     S
He9     H157    10.0   .     S
He9     H173    10.0   .     S
He9     H163    10.0   .     S
He9     He10    10.0   1_655     S
He10     H333    10.0   .     S
He10     H305    10.0   .     S
He10     H306    10.0   .     S
He10     H322    10.0   .     S
He10     He9    10.0   1_455     S
He11     H497    10.0   .     S
He11     H499    10.0   .     S
He11     H529    10.0   .     S
He11     H520    10.0   .     S
He11     He12    10.0   .     S
He12     H164    10.0   .     S
He12     H180    10.0   .     S
He12     H178    10.0   .     S
He12     H184    10.0   .     S
He13     H448    10.0   .     S
He13     H452    10.0   .     S
He13     H480    10.0   .     S
He13     H469    10.0   .     S
He13     He14    10.0   .     S
He14     H172    10.0   .     S
He14     H174    10.0   .     S
He14     H187    10.0   .     S
He14     H177    10.0   .     S
He15     H319    10.0   .     S
He15     H308    10.0   .     S
He15     H323    10.0   .     S
He15     H315    10.0   .     S
He15     He16    10.0   .     S
He16     H427    10.0   .     S
He16     H398    10.0   .     S
He16     H401    10.0   .     S
He16     H409    10.0   .     S
He17     H339    10.0   .     S
He17     H302    10.0   .     S
He17     H332    10.0   .     S
He17     H330    10.0   .     S
He17     He18    10.0   1_556     S
He18     H437    10.0   .     S
He18     H420    10.0   .     S
He18     H418    10.0   .     S
He18     H417    10.0   .     S
He18     He17    10.0   1_554     S
He19     H464    10.0   .     S
He19     H479    10.0   .     S
He19     H468    10.0   .     S
He19     H486    10.0   .     S
He19     He20    10.0   .     S
He20     H261    10.0   .     S
He20     H262    10.0   .     S
He20     H243    10.0   .     S
He20     H267    10.0   .     S
He21     H338    10.0   .     S
He21     H304    10.0   .     S
He21     H300    10.0   .     S
He21     H318    10.0   .     S
He21     He22    10.0   1_565     S
He22     H253    10.0   .     S
He22     H245    10.0   .     S
He22     H242    10.0   .     S
He22     H273    10.0   .     S
He22     He21    10.0   1_545     S
He23     H511    10.0   .     S
He23     H498    10.0   .     S
He23     H504    10.0   .     S
He23     H524    10.0   .     S
He23     He24    10.0   1_565     S
He24     H584    10.0   .     S
He24     H567    10.0   .     S
He24     H565    10.0   .     S
He24     H557    10.0   .     S
He24     He23    10.0   1_545     S
He25     H510    10.0   .     S
He25     H496    10.0   .     S
He25     H512    10.0   .     S
He25     H502    10.0   .     S
He25     He26    10.0   1_655     S
He26     H425    10.0   .     S
He26     H400    10.0   .     S
He26     H419    10.0   .     S
He26     H405    10.0   .     S
He26     He25    10.0   1_455     S
He27     H503    10.0   .     S
He27     H528    10.0   .     S
He27     H517    10.0   .     S
He27     H535    10.0   .     S
He27     He28    10.0   .     S
He28     H574    10.0   .     S
He28     H547    10.0   .     S
He28     H546    10.0   .     S
He28     H560    10.0   .     S
He29     H525    10.0   .     S
He29     H521    10.0   .     S
He29     H527    10.0   .     S
He29     H534    10.0   .     S
He29     He30    10.0   .     S
He30     H433    10.0   .     S
He30     H399    10.0   .     S
He30     H421    10.0   .     S
He30     H411    10.0   .     S
He31     H476    10.0   .     S
He31     H470    10.0   .     S
He31     H477    10.0   .     S
He31     H485    10.0   .     S
He31     He32    10.0   .     S
He32     H580    10.0   .     S
He32     H548    10.0   .     S
He32     H554    10.0   .     S
He32     H568    10.0   .     S
He33     H457    10.0   .     S
He33     H447    10.0   .     S
He33     H459    10.0   .     S
He33     H463    10.0   .     S
He33     He34    10.0   1_556     S
He34     H572    10.0   .     S
He34     H545    10.0   .     S
He34     H566    10.0   .     S
He34     H564    10.0   .     S
He34     He33    10.0   1_554     S
He35     H458    10.0   .     S
He35     H451    10.0   .     S
He35     H449    10.0   .     S
He35     H475    10.0   .     S
He35     He36    10.0   1_655     S
He36     H249    10.0   .     S
He36     H269    10.0   .     S
He36     H244    10.0   .     S
He36     H280    10.0   .     S
He36     He35    10.0   1_455     S
He37     H408    10.0   .     S
He37     H410    10.0   .     S
He37     H416    10.0   .     S
He37     H404    10.0   .     S
He37     He38    10.0   .     S
He38     H363    10.0   .     S
He38     H360    10.0   .     S
He38     H388    10.0   .     S
He38     H352    10.0   .     S
He39     H579    10.0   .     S
He39     H573    10.0   .     S
He39     H583    10.0   .     S
He39     H571    10.0   .     S
He39     He40    10.0   1_655     S
He40     H383    10.0   .     S
He40     H387    10.0   .     S
He40     H371    10.0   .     S
He40     H380    10.0   .     S
He40     He39    10.0   1_455     S
He41     H266    10.0   .     S
He41     H276    10.0   .     S
He41     H281    10.0   .     S
He41     H272    10.0   .     S
He41     He42    10.0   .     S
He42     H369    10.0   .     S
He42     H364    10.0   .     S
He42     H376    10.0   .     S
He42     H384    10.0   .     S
He43     H256    10.0   .     S
He43     H260    10.0   .     S
He43     H252    10.0   .     S
He43     H248    10.0   .     S
He43     He44    10.0   1_556     S
He44     H353    10.0   .     S
He44     H351    10.0   .     S
He44     H379    10.0   .     S
He44     H358    10.0   .     S
He44     He43    10.0   1_554     S
He45     H559    10.0   .     S
He45     H553    10.0   .     S
He45     H563    10.0   .     S
He45     H558    10.0   .     S
He45     He46    10.0   .     S
He46     H370    10.0   .     S
He46     H359    10.0   .     S
He46     H354    10.0   .     S
He46     H366    10.0   .     S
He47     H426    10.0   .     S
He47     H432    10.0   .     S
He47     H436    10.0   .     S
He47     H424    10.0   .     S
He47     He48    10.0   1_565     S
He48     H365    10.0   .     S
He48     H375    10.0   .     S
He48     H357    10.0   .     S
He48     H372    10.0   .     S
He48     He47    10.0   1_545     S
Ti49     Ce265    10.0   .     S
Ti49     Ce484    10.0   .     S
Ti49     Ti50    10.0   .     S
Ti49     Er52    9.999   .     S
Ti50     Ce313    10.0   .     S
Ti50     Ce186    10.0   .     S
Ti50     Er51    9.999   .     S
Er51     V55    10.0   .     S
Er51     H188    10.0   .     S
Er51     H324    10.0   .     S
Er52     V55    10.0   .     S
Er52     H262    10.0   .     S
Er52     H479    10.0   .     S
Er53     Ti56    9.999   .     S
Er53     V55    10.0   .     S
Er53     H187    10.0   .     S
Er53     H480    10.0   .     S
Er54     Ti57    9.999   .     S
Er54     V55    10.0   .     S
Er54     H263    10.0   .     S
Er54     H325    10.0   .     S
Ti56     Ce190    10.0   .     S
Ti56     Ce462    10.0   .     S
Ti56     Ti57    10.0   .     S
Ti57     Ce327    10.0   .     S
Ti57     Ce258    10.0   .     S
Ti58     Ce484    10.0   .     S
Ti58     Ce186    10.0   .     S
Ti58     Ti59    10.0   .     S
Ti58     Er60    9.999   .     S
Ti59     Ce533    10.0   .     S
Ti59     Ce552    10.0   .     S
Ti59     Er61    9.999   .     S
Er60     V64    10.0   .     S
Er60     H177    10.0   .     S
Er60     H469    10.0   .     S
Er61     V64    10.0   .     S
Er61     H528    10.0   .     S
Er61     H547    10.0   .     S
Er62     Ti65    9.999   .     S
Er62     V64    10.0   .     S
Er62     H470    10.0   .     S
Er62     H548    10.0   .     S
Er63     Ti66    9.999   .     S
Er63     V64    10.0   .     S
Er63     H178    10.0   .     S
Er63     H529    10.0   .     S
Ti65     Ce472    10.0   .     S
Ti65     Ce576    10.0   .     S
Ti65     Ti66    10.0   .     S
Ti66     Ce176    10.0   .     S
Ti66     Ce501    10.0   .     S
Ti67     Ce186    10.0   .     S
Ti67     Ce533    10.0   .     S
Ti67     Ti68    10.0   .     S
Ti67     Er71    9.999   .     S
Ti68     Ce313    10.0   .     S
Ti68     Ce407    10.0   .     S
Ti68     Er72    9.999   .     S
Er69     Ti75    9.999   .     S
Er69     V73    10.0   .     S
Er69     H183    10.0   .     S
Er69     H309    10.0   .     S
Er70     Ti74    9.999   .     S
Er70     V73    10.0   .     S
Er70     H399    10.0   .     S
Er70     H521    10.0   .     S
Er71     V73    10.0   .     S
Er71     H184    10.0   .     S
Er71     H520    10.0   .     S
Er72     V73    10.0   .     S
Er72     H308    10.0   .     S
Er72     H398    10.0   .     S
Ti74     Ce523    10.0   .     S
Ti74     Ce430    10.0   .     S
Ti74     Ti75    10.0   .     S
Ti75     Ce317    10.0   .     S
Ti75     Ce182    10.0   .     S
Ti76     Ce552    10.0   .     S
Ti76     Ce484    10.0   .     S
Ti76     Ti77    10.0   .     S
Ti76     Er81    9.999   .     S
Ti77     Ce362    10.0   .     S
Ti77     Ce265    10.0   .     S
Ti77     Er79    9.999   .     S
Er78     Ti83    9.999   .     S
Er78     V82    10.0   .     S
Er78     H267    10.0   .     S
Er78     H486    10.0   .     S
Er79     V82    10.0   .     S
Er79     H266    10.0   .     S
Er79     H369    10.0   .     S
Er80     Ti84    9.999   .     S
Er80     V82    10.0   .     S
Er80     H370    10.0   .     S
Er80     H553    10.0   .     S
Er81     V82    10.0   .     S
Er81     H485    10.0   .     S
Er81     H554    10.0   .     S
Ti83     Ce482    10.0   .     S
Ti83     Ce271    10.0   .     S
Ti83     Ti84    10.0   .     S
Ti84     Ce368    10.0   .     S
Ti84     Ce556    10.0   .     S
Ti85     Ce562    10.0   .     S
Ti85     Ce531    10.0   .     S
Ti85     Ti86    10.0   .     S
Ti85     Er88    9.999   .     S
Ti86     Ce350    10.0   .     S
Ti86     Ce413    10.0   .     S
Ti86     Er89    9.999   .     S
Er87     Ti93    9.999   .     S
Er87     V91    10.0   .     S
Er87     H411    10.0   .     S
Er87     H534    10.0   .     S
Er88     V91    10.0   .     S
Er88     H535    10.0   .     S
Er88     H560    10.0   .     S
Er89     V91    10.0   .     S
Er89     H360    10.0   .     S
Er89     H410    10.0   .     S
Er90     Ti92    9.999   .     S
Er90     V91    10.0   .     S
Er90     H359    10.0   .     S
Er90     H559    10.0   .     S
Ti92     Ce552    10.0   .     S
Ti92     Ce362    10.0   .     S
Ti92     Ti93    10.0   .     S
Ti93     Ce533    10.0   .     S
Ti93     Ce407    10.0   .     S
Ti94     Ce311    10.0   .     S
Ti94     Ce403    10.0   .     S
Ti94     Ti95    10.0   .     S
Ti94     Er96    9.999   .     S
Ti95     Ce382    10.0   .     S
Ti95     Ce275    10.0   .     S
Ti95     Er98    9.999   .     S
Er96     V100    10.0   .     S
Er96     H315    10.0   .     S
Er96     H409    10.0   .     S
Er97     Ti102    9.999   .     S
Er97     V100    10.0   .     S
Er97     H277    10.0   .     S
Er97     H314    10.0   .     S
Er98     V100    10.0   .     S
Er98     H276    10.0   .     S
Er98     H364    10.0   .     S
Er99     Ti101    9.999   .     S
Er99     V100    10.0   .     S
Er99     H363    10.0   .     S
Er99     H408    10.0   .     S
Ti101     Ce362    10.0   .     S
Ti101     Ce407    10.0   .     S
Ti101     Ti102    10.0   .     S
Ti102     Ce265    10.0   .     S
Ti102     Ce313    10.0   .     S
Ti103     Ce454    10.0   .     S
Ti103     Ce170    10.0   .     S
Ti103     Ti104    10.0   1_556     S
Ti103     Er106    9.999   .     S
Ti104     Ce515    10.0   .     S
Ti104     Ce570    10.0   .     S
Ti104     Ti103    10.0   1_554     S
Ti104     Er107    9.999   .     S
Er105     Ti110    9.999   .     S
Er105     V109    10.0   .     S
Er105     H171    10.0   1_554     S
Er105     H516    10.0   .     S
Er106     V109    10.0   1_556     S
Er106     H172    10.0   .     S
Er106     H448    10.0   .     S
Er107     V109    10.0   .     S
Er107     H517    10.0   .     S
Er107     H546    10.0   .     S
Er108     Ti111    9.999   .     S
Er108     V109    10.0   .     S
Er108     H447    10.0   1_554     S
Er108     H545    10.0   .     S
V109     Er106    10.0   1_554     S
Ti110     Ce190    10.0   1_554     S
Ti110     Ce531    10.0   .     S
Ti110     Ti111    10.0   .     S
Ti111     Ce462    10.0   1_554     S
Ti111     Ce562    10.0   .     S
Ti112     Ce501    10.0   1_455     S
Ti112     Ce403    10.0   .     S
Ti112     Ti113    10.0   .     S
Ti112     Er117    9.999   .     S
Ti113     Ce176    10.0   1_455     S
Ti113     Ce311    10.0   .     S
Ti113     Er114    9.999   .     S
Er114     V118    10.0   .     S
Er114     H163    10.0   1_455     S
Er114     H322    10.0   .     S
Er115     Ti119    9.999   .     S
Er115     V118    10.0   1_655     S
Er115     H164    10.0   .     S
Er115     H497    10.0   .     S
Er116     Ti120    9.999   .     S
Er116     V118    10.0   .     S
Er116     H323    10.0   .     S
Er116     H401    10.0   .     S
Er117     V118    10.0   .     S
Er117     H400    10.0   .     S
Er117     H496    10.0   1_455     S
V118     Er115    10.0   1_455     S
Ti119     Ce162    10.0   .     S
Ti119     Ce508    10.0   .     S
Ti119     Ti120    10.0   1_655     S
Ti120     Ce321    10.0   .     S
Ti120     Ce423    10.0   .     S
Ti120     Ti119    10.0   1_455     S
Ti121     Ce182    10.0   1_545     S
Ti121     Ce482    10.0   .     S
Ti121     Ti122    10.0   .     S
Ti121     Er125    9.999   .     S
Ti122     Ce317    10.0   1_545     S
Ti122     Ce271    10.0   .     S
Ti122     Er126    9.999   .     S
Er123     Ti128    9.999   .     S
Er123     V127    10.0   1_565     S
Er123     H168    10.0   .     S
Er123     H301    10.0   .     S
Er124     Ti129    9.999   .     S
Er124     V127    10.0   .     S
Er124     H243    10.0   .     S
Er124     H468    10.0   .     S
Er125     V127    10.0   .     S
Er125     H167    10.0   1_545     S
Er125     H467    10.0   .     S
Er126     V127    10.0   .     S
Er126     H242    10.0   .     S
Er126     H300    10.0   1_545     S
V127     Er123    10.0   1_545     S
Ti128     Ce166    10.0   .     S
Ti128     Ce336    10.0   .     S
Ti128     Ti129    10.0   1_565     S
Ti129     Ce466    10.0   .     S
Ti129     Ce251    10.0   .     S
Ti129     Ti128    10.0   1_545     S
Ti130     Ce162    10.0   1_545     S
Ti130     Ce474    10.0   .     S
Ti130     Ti131    10.0   .     S
Ti130     Er132    9.999   .     S
Ti131     Ce508    10.0   1_545     S
Ti131     Ce578    10.0   .     S
Ti131     Er133    9.999   .     S
Er132     V136    10.0   .     S
Er132     H179    10.0   1_545     S
Er132     H478    10.0   .     S
Er133     V136    10.0   .     S
Er133     H498    10.0   1_545     S
Er133     H567    10.0   .     S
Er134     Ti137    9.999   .     S
Er134     V136    10.0   1_565     S
Er134     H180    10.0   .     S
Er134     H499    10.0   .     S
Er135     Ti138    9.999   .     S
Er135     V136    10.0   .     S
Er135     H477    10.0   .     S
Er135     H568    10.0   .     S
V136     Er134    10.0   1_545     S
Ti137     Ce182    10.0   .     S
Ti137     Ce523    10.0   .     S
Ti137     Ti138    10.0   1_565     S
Ti138     Ce482    10.0   .     S
Ti138     Ce556    10.0   .     S
Ti138     Ti137    10.0   1_545     S
Ti139     Ce327    10.0   .     S
Ti139     Ce190    10.0   .     S
Ti139     Ti140    10.0   1_556     S
Ti139     Er141    9.999   .     S
Ti140     Ce531    10.0   .     S
Ti140     Ce413    10.0   .     S
Ti140     Ti139    10.0   1_554     S
Ti140     Er143    9.999   .     S
Er141     V145    10.0   1_556     S
Er141     H192    10.0   .     S
Er141     H303    10.0   .     S
Er142     Ti147    9.999   .     S
Er142     V145    10.0   .     S
Er142     H302    10.0   1_554     S
Er142     H420    10.0   .     S
Er143     V145    10.0   .     S
Er143     H421    10.0   .     S
Er143     H527    10.0   .     S
Er144     Ti146    9.999   .     S
Er144     V145    10.0   .     S
Er144     H191    10.0   1_554     S
Er144     H526    10.0   .     S
V145     Er141    10.0   1_554     S
Ti146     Ce166    10.0   1_554     S
Ti146     Ce519    10.0   .     S
Ti146     Ti147    10.0   .     S
Ti147     Ce336    10.0   1_554     S
Ti147     Ce429    10.0   .     S
Ti148     Ce176    10.0   .     S
Ti148     Ce472    10.0   .     S
Ti148     Ti149    10.0   1_655     S
Ti148     Er150    9.999   .     S
Ti149     Ce311    10.0   .     S
Ti149     Ce275    10.0   .     S
Ti149     Ti148    10.0   1_455     S
Ti149     Er151    9.999   .     S
Er150     V154    10.0   1_655     S
Er150     H174    10.0   .     S
Er150     H452    10.0   .     S
Er151     V154    10.0   .     S
Er151     H268    10.0   .     S
Er151     H307    10.0   .     S
Er152     Ti155    9.999   .     S
Er152     V154    10.0   .     S
Er152     H173    10.0   1_455     S
Er152     H306    10.0   .     S
Er153     Ti156    9.999   .     S
Er153     V154    10.0   .     S
Er153     H269    10.0   .     S
Er153     H451    10.0   1_455     S
V154     Er150    10.0   1_455     S
Ti155     Ce170    10.0   1_455     S
Ti155     Ce329    10.0   .     S
Ti155     Ti156    10.0   .     S
Ti156     Ce454    10.0   1_455     S
Ti156     Ce255    10.0   .     S
H157     S161    10.0   .     S
H157     H158    10.0   .     S
H157     Er217    10.0   1_655     S
H158     S194    10.0   .     S
H158     Er218    10.0   1_565     S
H159     S165    10.0   .     S
H159     H160    10.0   .     S
H159     Er201    10.0   1_565     S
H160     S194    10.0   .     S
H160     Er199    10.0   1_556     S
S161     Ce162    9.999   .     S
S161     H164    10.0   .     S
S161     H179    10.0   .     S
Ce162     Ti130    10.0   1_565     S
Ce162     Ti215    10.0   1_655     S
H163     S175    10.0   .     S
H163     H164    10.0   .     S
H163     Er114    10.0   1_655     S
S165     Ce166    9.999   .     S
S165     H168    10.0   .     S
S165     H191    10.0   .     S
Ce166     Ti146    10.0   1_556     S
Ce166     Ti197    10.0   1_565     S
H167     S181    10.0   .     S
H167     H168    10.0   .     S
H167     Er125    10.0   1_565     S
S169     Ce170    9.999   .     S
S169     H172    10.0   .     S
S169     H173    10.0   .     S
S169     H195    10.0   .     S
Ce170     Ti155    10.0   1_655     S
Ce170     Ti206    10.0   1_556     S
H171     S189    10.0   .     S
H171     H172    10.0   .     S
H171     Er105    10.0   1_556     S
H173     H174    10.0   .     S
H173     Er152    10.0   1_655     S
H174     S175    10.0   .     S
S175     Ce176    9.999   .     S
S175     H178    10.0   .     S
Ce176     Ti113    10.0   1_655     S
H177     S185    10.0   .     S
H177     H178    10.0   .     S
H179     H180    10.0   .     S
H179     Er132    10.0   1_565     S
H180     S181    10.0   .     S
S181     Ce182    9.999   .     S
S181     H183    10.0   .     S
Ce182     Ti121    10.0   1_565     S
H183     H184    10.0   .     S
H184     S185    10.0   .     S
S185     Ce186    9.999   .     S
S185     H188    10.0   .     S
H187     S189    10.0   .     S
H187     H188    10.0   .     S
S189     Ce190    9.999   .     S
S189     H192    10.0   .     S
Ce190     Ti110    10.0   1_556     S
H191     H192    10.0   .     S
H191     Er144    10.0   1_556     S
Ce193     S194    9.999   .     S
Ce193     Ti204    10.0   1_556     S
Ce193     Ti213    10.0   1_655     S
Ce193     Ti222    10.0   1_565     S
S194     H196    10.0   .     S
H195     H196    10.0   .     S
H195     Er210    10.0   1_556     S
H196     Er208    10.0   1_655     S
Ti197     Ce166    10.0   1_545     S
Ti197     Ce466    10.0   .     S
Ti197     Ti198    10.0   1_556     S
Ti197     Er201    9.999   .     S
Ti198     Ce519    10.0   1_545     S
Ti198     Ce550    10.0   .     S
Ti198     Ti197    10.0   1_554     S
Ti198     Er202    9.999   .     S
Er199     H160    10.0   1_554     S
Er199     Ti204    9.999   .     S
Er199     V203    10.0   1_565     S
Er199     H505    10.0   .     S
Er200     Ti205    9.999   .     S
Er200     V203    10.0   .     S
Er200     H459    10.0   1_554     S
Er200     H566    10.0   .     S
Er201     H159    10.0   1_545     S
Er201     V203    10.0   1_556     S
Er201     H460    10.0   .     S
Er202     V203    10.0   .     S
Er202     H504    10.0   1_545     S
Er202     H565    10.0   .     S
V203     Er199    10.0   1_545     S
V203     Er201    10.0   1_554     S
Ti204     Ce193    10.0   1_554     S
Ti204     Ce507    10.0   .     S
Ti204     Ti205    10.0   1_565     S
Ti205     Ce456    10.0   1_554     S
Ti205     Ce582    10.0   .     S
Ti205     Ti204    10.0   1_545     S
Ti206     Ce170    10.0   1_554     S
Ti206     Ce515    10.0   .     S
Ti206     Ti207    10.0   1_655     S
Ti206     Er210    9.999   .     S
Ti207     Ce329    10.0   1_554     S
Ti207     Ce415    10.0   .     S
Ti207     Ti206    10.0   1_455     S
Ti207     Er211    9.999   .     S
Er208     H196    10.0   1_455     S
Er208     Ti213    9.999   .     S
Er208     V212    10.0   1_556     S
Er208     H333    10.0   .     S
Er209     Ti214    9.999   .     S
Er209     V212    10.0   .     S
Er209     H419    10.0   .     S
Er209     H512    10.0   1_455     S
Er210     H195    10.0   1_554     S
Er210     V212    10.0   1_655     S
Er210     H513    10.0   .     S
Er211     V212    10.0   .     S
Er211     H332    10.0   1_554     S
Er211     H418    10.0   .     S
V212     Er208    10.0   1_554     S
V212     Er210    10.0   1_455     S
Ti213     Ce193    10.0   1_455     S
Ti213     Ce335    10.0   .     S
Ti213     Ti214    10.0   1_556     S
Ti214     Ce507    10.0   1_455     S
Ti214     Ce435    10.0   .     S
Ti214     Ti213    10.0   1_554     S
Ti215     Ce162    10.0   1_455     S
Ti215     Ce321    10.0   .     S
Ti215     Ti216    10.0   1_565     S
Ti215     Er217    9.999   .     S
Ti216     Ce474    10.0   1_455     S
Ti216     Ce279    10.0   .     S
Ti216     Ti215    10.0   1_545     S
Ti216     Er219    9.999   .     S
Er217     H157    10.0   1_455     S
Er217     V221    10.0   1_565     S
Er217     H305    10.0   .     S
Er218     H158    10.0   1_545     S
Er218     Ti222    9.999   .     S
Er218     V221    10.0   1_655     S
Er218     H450    10.0   .     S
Er219     V221    10.0   .     S
Er219     H244    10.0   .     S
Er219     H449    10.0   1_455     S
Er220     Ti223    9.999   .     S
Er220     V221    10.0   .     S
Er220     H245    10.0   .     S
Er220     H304    10.0   1_545     S
V221     Er218    10.0   1_455     S
V221     Er217    10.0   1_545     S
Ti222     Ce193    10.0   1_545     S
Ti222     Ce456    10.0   .     S
Ti222     Ti223    10.0   1_655     S
Ti223     Ce335    10.0   1_545     S
Ti223     Ce247    10.0   .     S
Ti223     Ti222    10.0   1_455     S
Ti224     Ce462    10.0   .     S
Ti224     Ce258    10.0   .     S
Ti224     Ti225    10.0   1_556     S
Ti224     Er226    9.999   .     S
Ti225     Ce562    10.0   .     S
Ti225     Ce350    10.0   .     S
Ti225     Ti224    10.0   1_554     S
Ti225     Er227    9.999   .     S
Er226     V230    10.0   1_556     S
Er226     H261    10.0   .     S
Er226     H464    10.0   .     S
Er227     V230    10.0   .     S
Er227     H354    10.0   .     S
Er227     H563    10.0   .     S
Er228     Ti232    9.999   .     S
Er228     V230    10.0   .     S
Er228     H463    10.0   1_554     S
Er228     H564    10.0   .     S
Er229     Ti231    9.999   .     S
Er229     V230    10.0   .     S
Er229     H260    10.0   1_554     S
Er229     H353    10.0   .     S
V230     Er226    10.0   1_554     S
Ti231     Ce251    10.0   1_554     S
Ti231     Ce356    10.0   .     S
Ti231     Ti232    10.0   .     S
Ti232     Ce466    10.0   1_554     S
Ti232     Ce550    10.0   .     S
Ti233     Ce317    10.0   .     S
Ti233     Ce430    10.0   .     S
Ti233     Ti234    10.0   1_565     S
Ti233     Er237    9.999   .     S
Ti234     Ce368    10.0   .     S
Ti234     Ce271    10.0   .     S
Ti234     Ti233    10.0   1_545     S
Ti234     Er236    9.999   .     S
Er235     Ti241    9.999   .     S
Er235     V239    10.0   .     S
Er235     H273    10.0   .     S
Er235     H318    10.0   1_545     S
Er236     V239    10.0   .     S
Er236     H272    10.0   .     S
Er236     H376    10.0   .     S
Er237     V239    10.0   1_565     S
Er237     H319    10.0   .     S
Er237     H427    10.0   .     S
Er238     Ti240    9.999   .     S
Er238     V239    10.0   .     S
Er238     H375    10.0   .     S
Er238     H426    10.0   1_545     S
V239     Er237    10.0   1_545     S
Ti240     Ce423    10.0   1_545     S
Ti240     Ce374    10.0   .     S
Ti240     Ti241    10.0   .     S
Ti241     Ce321    10.0   1_545     S
Ti241     Ce279    10.0   .     S
H242     S270    10.0   .     S
H242     H243    10.0   .     S
H243     S250    10.0   .     S
H244     S278    10.0   .     S
H244     H245    10.0   .     S
H245     S246    10.0   .     S
S246     Ce247    9.999   .     S
S246     H249    10.0   .     S
S246     H252    10.0   .     S
Ce247     Ti292    10.0   1_556     S
Ce247     Ti396    10.0   .     S
H248     S254    10.0   .     S
H248     H249    10.0   .     S
H248     Er394    10.0   1_556     S
H249     Er391    10.0   .     S
S250     Ce251    9.999   .     S
S250     H253    10.0   .     S
S250     H260    10.0   .     S
Ce251     Ti231    10.0   1_556     S
Ce251     Ti298    10.0   .     S
H252     H253    10.0   .     S
H252     Er296    10.0   1_556     S
H253     Er295    10.0   .     S
S254     Ce255    9.999   .     S
S254     H257    10.0   .     S
S254     H269    10.0   .     S
Ce255     Ti289    10.0   .     S
Ce255     Ti390    10.0   1_556     S
H256     S259    10.0   .     S
H256     H257    10.0   .     S
H256     Er287    10.0   1_556     S
H257     Er286    10.0   .     S
Ce258     S259    9.999   .     S
Ce258     Ti282    10.0   1_556     S
S259     H261    10.0   .     S
S259     H263    10.0   .     S
H260     H261    10.0   .     S
H260     Er229    10.0   1_556     S
H262     S264    10.0   .     S
H262     H263    10.0   .     S
S264     Ce265    9.999   .     S
S264     H266    10.0   .     S
S264     H277    10.0   .     S
H266     H267    10.0   .     S
H267     S270    10.0   .     S
H268     S274    10.0   .     S
H268     H269    10.0   .     S
S270     Ce271    9.999   .     S
S270     H272    10.0   .     S
H272     H273    10.0   .     S
H273     S278    10.0   .     S
S274     Ce275    9.999   .     S
S274     H276    10.0   .     S
S274     H280    10.0   .     S
Ce275     Ti487    10.0   .     S
H276     H277    10.0   .     S
S278     Ce279    9.999   .     S
S278     H281    10.0   .     S
Ce279     Ti495    10.0   .     S
H280     H281    10.0   .     S
H280     Er489    10.0   .     S
H281     Er491    10.0   .     S
Ti282     Ce258    10.0   1_554     S
Ti282     Ce350    10.0   .     S
Ti282     Ti283    10.0   .     S
Ti282     Er287    9.999   .     S
Ti283     Ce327    10.0   1_554     S
Ti283     Ce413    10.0   .     S
Ti283     Er284    9.999   .     S
Er284     V288    10.0   .     S
Er284     H330    10.0   1_554     S
Er284     H417    10.0   .     S
Er285     Ti290    9.999   .     S
Er285     V288    10.0   .     S
Er285     H352    10.0   .     S
Er285     H416    10.0   .     S
Er286     Ti289    9.999   .     S
Er286     V288    10.0   1_556     S
Er286     H331    10.0   .     S
Er287     H256    10.0   1_554     S
Er287     V288    10.0   .     S
Er287     H351    10.0   .     S
V288     Er286    10.0   1_554     S
Ti289     Ce329    10.0   .     S
Ti289     Ti290    10.0   1_556     S
Ti290     Ce386    10.0   .     S
Ti290     Ce415    10.0   .     S
Ti290     Ti289    10.0   1_554     S
Ti291     Ce335    10.0   1_554     S
Ti291     Ce435    10.0   .     S
Ti291     Ti292    10.0   1_565     S
Ti291     Er293    9.999   .     S
Ti292     Ce247    10.0   1_554     S
Ti292     Ce378    10.0   .     S
Ti292     Ti291    10.0   1_545     S
Ti292     Er296    9.999   .     S
Er293     V297    10.0   1_565     S
Er293     H339    10.0   1_554     S
Er293     H437    10.0   .     S
Er294     Ti299    9.999   .     S
Er294     V297    10.0   .     S
Er294     H357    10.0   .     S
Er294     H436    10.0   1_545     S
Er295     Ti298    9.999   .     S
Er295     V297    10.0   1_556     S
Er295     H338    10.0   1_545     S
Er296     H252    10.0   1_554     S
Er296     V297    10.0   .     S
Er296     H358    10.0   .     S
V297     Er295    10.0   1_554     S
V297     Er293    10.0   1_545     S
Ti298     Ce336    10.0   1_545     S
Ti298     Ti299    10.0   1_556     S
Ti299     Ce429    10.0   1_545     S
Ti299     Ce356    10.0   .     S
Ti299     Ti298    10.0   1_554     S
H300     S316    10.0   .     S
H300     H301    10.0   .     S
H300     Er126    10.0   1_565     S
H301     S337    10.0   .     S
H302     S337    10.0   .     S
H302     H303    10.0   .     S
H302     Er142    10.0   1_556     S
H303     S326    10.0   .     S
H304     S334    10.0   .     S
H304     H305    10.0   .     S
H304     Er220    10.0   1_565     S
H305     S320    10.0   .     S
H306     S328    10.0   .     S
H306     H307    10.0   .     S
H307     S310    10.0   .     S
H308     S312    10.0   .     S
H308     H309    10.0   .     S
H309     S316    10.0   .     S
S310     Ce311    9.999   .     S
S310     H315    10.0   .     S
S310     H322    10.0   .     S
S312     Ce313    9.999   .     S
S312     H314    10.0   .     S
S312     H324    10.0   .     S
H314     H315    10.0   .     S
S316     Ce317    9.999   .     S
S316     H319    10.0   .     S
Ce317     Ti122    10.0   1_565     S
H318     S320    10.0   .     S
H318     H319    10.0   .     S
H318     Er235    10.0   1_565     S
S320     Ce321    9.999   .     S
S320     H323    10.0   .     S
Ce321     Ti241    10.0   1_565     S
H322     H323    10.0   .     S
H324     H325    10.0   .     S
H325     S326    10.0   .     S
S326     Ce327    9.999   .     S
S326     H330    10.0   .     S
Ce327     Ti283    10.0   1_556     S
S328     Ce329    9.999   .     S
S328     H331    10.0   .     S
S328     H332    10.0   .     S
Ce329     Ti207    10.0   1_556     S
H330     H331    10.0   .     S
H330     Er284    10.0   1_556     S
H332     H333    10.0   .     S
H332     Er211    10.0   1_556     S
H333     S334    10.0   .     S
S334     Ce335    9.999   .     S
S334     H339    10.0   .     S
Ce335     Ti223    10.0   1_565     S
Ce335     Ti291    10.0   1_556     S
Ce336     Ti147    10.0   1_556     S
Ce336     Ti298    10.0   1_565     S
Ce336     S337    9.999   .     S
S337     H338    10.0   .     S
H338     H339    10.0   .     S
H338     Er295    10.0   1_565     S
H339     Er293    10.0   1_556     S
Ti340     Ce570    10.0   1_455     S
Ti340     Ce386    10.0   .     S
Ti340     Ti341    10.0   .     S
Ti340     Er345    9.999   .     S
Ti341     Ce515    10.0   1_455     S
Ti341     Ce415    10.0   .     S
Ti341     Er344    9.999   .     S
Er342     Ti347    9.999   .     S
Er342     V346    10.0   1_655     S
Er342     H503    10.0   .     S
Er342     H574    10.0   .     S
Er343     Ti348    9.999   .     S
Er343     V346    10.0   .     S
Er343     H388    10.0   .     S
Er343     H404    10.0   .     S
Er344     V346    10.0   .     S
Er344     H405    10.0   .     S
Er344     H502    10.0   1_455     S
Er345     V346    10.0   .     S
Er345     H387    10.0   .     S
Er345     H573    10.0   1_455     S
V346     Er342    10.0   1_455     S
Ti347     Ce576    10.0   .     S
Ti347     Ce501    10.0   .     S
Ti347     Ti348    10.0   1_655     S
Ti348     Ce382    10.0   .     S
Ti348     Ce403    10.0   .     S
Ti348     Ti347    10.0   1_455     S
S349     Ce350    9.999   .     S
S349     H351    10.0   .     S
S349     H354    10.0   .     S
S349     H360    10.0   .     S
H351     H352    10.0   .     S
H352     S385    10.0   .     S
H353     S355    10.0   .     S
H353     H354    10.0   .     S
S355     Ce356    9.999   .     S
S355     H357    10.0   .     S
S355     H366    10.0   .     S
Ce356     Ti446    10.0   .     S
H357     H358    10.0   .     S
H358     S377    10.0   .     S
H359     S361    10.0   .     S
H359     H360    10.0   .     S
S361     Ce362    9.999   .     S
S361     H363    10.0   .     S
S361     H369    10.0   .     S
H363     H364    10.0   .     S
H364     S381    10.0   .     S
H365     S367    10.0   .     S
H365     H366    10.0   .     S
H365     Er443    10.0   .     S
H366     Er441    10.0   .     S
S367     Ce368    9.999   .     S
S367     H370    10.0   .     S
S367     H376    10.0   .     S
Ce368     Ti438    10.0   .     S
H369     H370    10.0   .     S
H371     S373    10.0   .     S
H371     H372    10.0   .     S
H371     Er541    10.0   .     S
H372     S377    10.0   .     S
H372     Er540    10.0   .     S
S373     Ce374    9.999   .     S
S373     H375    10.0   .     S
S373     H384    10.0   .     S
Ce374     Ti495    10.0   .     S
Ce374     Ti537    10.0   .     S
H375     H376    10.0   .     S
S377     Ce378    9.999   .     S
S377     H380    10.0   .     S
Ce378     Ti397    10.0   .     S
Ce378     Ti544    10.0   .     S
H379     S385    10.0   .     S
H379     H380    10.0   .     S
H379     Er394    10.0   .     S
H380     Er393    10.0   .     S
S381     Ce382    9.999   .     S
S381     H383    10.0   .     S
S381     H388    10.0   .     S
Ce382     Ti488    10.0   .     S
H383     H384    10.0   .     S
H383     Er492    10.0   .     S
H384     Er491    10.0   .     S
S385     Ce386    9.999   .     S
S385     H387    10.0   .     S
Ce386     Ti390    10.0   .     S
H387     H388    10.0   .     S
Ti389     Ce454    10.0   1_554     S
Ti389     Ce570    10.0   .     S
Ti389     Ti390    10.0   1_655     S
Ti389     Er392    9.999   .     S
Ti390     Ce255    10.0   1_554     S
Ti390     Ti389    10.0   1_455     S
Ti390     Er394    9.999   .     S
Er391     Ti396    9.999   .     S
Er391     V395    10.0   1_556     S
Er391     H458    10.0   1_455     S
Er392     V395    10.0   1_655     S
Er392     H457    10.0   1_554     S
Er392     H572    10.0   .     S
Er393     Ti397    9.999   .     S
Er393     V395    10.0   .     S
Er393     H571    10.0   1_455     S
Er394     H248    10.0   1_554     S
Er394     V395    10.0   .     S
V395     Er392    10.0   1_455     S
V395     Er391    10.0   1_554     S
Ti396     Ce456    10.0   1_455     S
Ti396     Ti397    10.0   1_556     S
Ti397     Ce582    10.0   1_455     S
Ti397     Ti396    10.0   1_554     S
H398     S406    10.0   .     S
H398     H399    10.0   .     S
H399     S431    10.0   .     S
H400     S402    10.0   .     S
H400     H401    10.0   .     S
H401     S422    10.0   .     S
S402     Ce403    9.999   .     S
S402     H404    10.0   .     S
S402     H409    10.0   .     S
H404     H405    10.0   .     S
H405     S414    10.0   .     S
S406     Ce407    9.999   .     S
S406     H408    10.0   .     S
S406     H411    10.0   .     S
H408     H409    10.0   .     S
H410     S412    10.0   .     S
H410     H411    10.0   .     S
S412     Ce413    9.999   .     S
S412     H417    10.0   .     S
S412     H421    10.0   .     S
S414     Ce415    9.999   .     S
S414     H416    10.0   .     S
S414     H418    10.0   .     S
H416     H417    10.0   .     S
H418     H419    10.0   .     S
H419     S434    10.0   .     S
H420     S428    10.0   .     S
H420     H421    10.0   .     S
S422     Ce423    9.999   .     S
S422     H425    10.0   .     S
S422     H426    10.0   .     S
Ce423     Ti240    10.0   1_565     S
Ce423     Ti536    10.0   .     S
H424     S434    10.0   .     S
H424     H425    10.0   .     S
H424     Er540    10.0   1_565     S
H425     Er539    10.0   .     S
H426     H427    10.0   .     S
H426     Er238    10.0   1_565     S
H427     S431    10.0   .     S
S428     Ce429    9.999   .     S
S428     H433    10.0   .     S
S428     H436    10.0   .     S
Ce429     Ti299    10.0   1_565     S
Ce429     Ti445    10.0   .     S
Ce430     S431    9.999   .     S
Ce430     Ti438    10.0   1_565     S
S431     H432    10.0   .     S
H432     H433    10.0   .     S
H432     Er443    10.0   1_565     S
H433     Er440    10.0   .     S
S434     Ce435    9.999   .     S
S434     H437    10.0   .     S
Ce435     Ti544    10.0   1_565     S
H436     H437    10.0   .     S
H436     Er294    10.0   1_565     S
Ti438     Ce430    10.0   1_545     S
Ti438     Ti439    10.0   .     S
Ti438     Er443    9.999   .     S
Ti439     Ce523    10.0   1_545     S
Ti439     Ce556    10.0   .     S
Ti439     Er442    9.999   .     S
Er440     Ti445    9.999   .     S
Er440     V444    10.0   1_565     S
Er440     H525    10.0   .     S
Er441     Ti446    9.999   .     S
Er441     V444    10.0   .     S
Er441     H558    10.0   .     S
Er442     V444    10.0   .     S
Er442     H524    10.0   1_545     S
Er442     H557    10.0   .     S
Er443     H432    10.0   1_545     S
Er443     V444    10.0   .     S
V444     Er440    10.0   1_545     S
Ti445     Ce519    10.0   .     S
Ti445     Ti446    10.0   1_565     S
Ti446     Ce550    10.0   .     S
Ti446     Ti445    10.0   1_545     S
H447     S461    10.0   .     S
H447     H448    10.0   .     S
H447     Er108    10.0   1_556     S
H448     S453    10.0   .     S
H449     S473    10.0   .     S
H449     H450    10.0   .     S
H449     Er219    10.0   1_655     S
H450     S455    10.0   .     S
H451     S453    10.0   .     S
H451     H452    10.0   .     S
H451     Er153    10.0   1_655     S
H452     S471    10.0   .     S
S453     Ce454    9.999   .     S
S453     H457    10.0   .     S
Ce454     Ti156    10.0   1_655     S
Ce454     Ti389    10.0   1_556     S
S455     Ce456    9.999   .     S
S455     H458    10.0   .     S
S455     H459    10.0   .     S
Ce456     Ti205    10.0   1_556     S
Ce456     Ti396    10.0   1_655     S
H457     H458    10.0   .     S
H457     Er392    10.0   1_556     S
H458     Er391    10.0   1_655     S
H459     H460    10.0   .     S
H459     Er200    10.0   1_556     S
H460     S465    10.0   .     S
S461     Ce462    9.999   .     S
S461     H464    10.0   .     S
S461     H480    10.0   .     S
Ce462     Ti111    10.0   1_556     S
H463     S465    10.0   .     S
H463     H464    10.0   .     S
H463     Er228    10.0   1_556     S
S465     Ce466    9.999   .     S
S465     H468    10.0   .     S
Ce466     Ti232    10.0   1_556     S
H467     S481    10.0   .     S
H467     H468    10.0   .     S
H469     S483    10.0   .     S
H469     H470    10.0   .     S
H470     S471    10.0   .     S
S471     Ce472    9.999   .     S
S471     H475    10.0   .     S
Ce472     Ti487    10.0   1_655     S
S473     Ce474    9.999   .     S
S473     H476    10.0   .     S
S473     H478    10.0   .     S
Ce474     Ti216    10.0   1_655     S
Ce474     Ti494    10.0   .     S
H475     H476    10.0   .     S
H475     Er489    10.0   1_655     S
H476     Er490    10.0   .     S
H477     S481    10.0   .     S
H477     H478    10.0   .     S
H479     S483    10.0   .     S
H479     H480    10.0   .     S
S481     Ce482    9.999   .     S
S481     H486    10.0   .     S
S483     Ce484    9.999   .     S
S483     H485    10.0   .     S
H485     H486    10.0   .     S
Ti487     Ce472    10.0   1_455     S
Ti487     Ti488    10.0   .     S
Ti487     Er489    9.999   .     S
Ti488     Ce576    10.0   1_455     S
Ti488     Er492    9.999   .     S
Er489     H475    10.0   1_455     S
Er489     V493    10.0   .     S
Er490     Ti494    9.999   .     S
Er490     V493    10.0   1_655     S
Er490     H580    10.0   .     S
Er491     Ti495    9.999   .     S
Er491     V493    10.0   .     S
Er492     V493    10.0   .     S
Er492     H579    10.0   1_455     S
V493     Er490    10.0   1_455     S
Ti494     Ce578    10.0   .     S
Ti494     Ti495    10.0   1_655     S
Ti495     Ti494    10.0   1_455     S
H496     S500    10.0   .     S
H496     H497    10.0   .     S
H496     Er117    10.0   1_655     S
H497     S509    10.0   .     S
H498     S509    10.0   .     S
H498     H499    10.0   .     S
H498     Er133    10.0   1_565     S
H499     S522    10.0   .     S
S500     Ce501    9.999   .     S
S500     H503    10.0   .     S
S500     H529    10.0   .     S
Ce501     Ti112    10.0   1_655     S
H502     S514    10.0   .     S
H502     H503    10.0   .     S
H502     Er344    10.0   1_655     S
H504     S518    10.0   .     S
H504     H505    10.0   .     S
H504     Er202    10.0   1_565     S
H505     S506    10.0   .     S
S506     Ce507    9.999   .     S
S506     H511    10.0   .     S
S506     H512    10.0   .     S
Ce507     Ti214    10.0   1_655     S
Ce507     Ti543    10.0   1_565     S
Ce508     Ti131    10.0   1_565     S
Ce508     S509    9.999   .     S
Ce508     Ti536    10.0   1_655     S
S509     H510    10.0   .     S
H510     H511    10.0   .     S
H510     Er539    10.0   1_655     S
H511     Er538    10.0   1_565     S
H512     H513    10.0   .     S
H512     Er209    10.0   1_655     S
H513     S514    10.0   .     S
S514     Ce515    9.999   .     S
S514     H517    10.0   .     S
Ce515     Ti341    10.0   1_655     S
H516     S530    10.0   .     S
H516     H517    10.0   .     S
S518     Ce519    9.999   .     S
S518     H525    10.0   .     S
S518     H526    10.0   .     S
Ce519     Ti198    10.0   1_565     S
H520     S532    10.0   .     S
H520     H521    10.0   .     S
H521     S522    10.0   .     S
S522     Ce523    9.999   .     S
S522     H524    10.0   .     S
Ce523     Ti439    10.0   1_565     S
H524     H525    10.0   .     S
H524     Er442    10.0   1_565     S
H526     H527    10.0   .     S
H527     S530    10.0   .     S
H528     S532    10.0   .     S
H528     H529    10.0   .     S
S530     Ce531    9.999   .     S
S530     H535    10.0   .     S
S532     Ce533    9.999   .     S
S532     H534    10.0   .     S
H534     H535    10.0   .     S
Ti536     Ce508    10.0   1_455     S
Ti536     Ti537    10.0   1_565     S
Ti536     Er539    9.999   .     S
Ti537     Ce578    10.0   1_455     S
Ti537     Ti536    10.0   1_545     S
Ti537     Er541    9.999   .     S
Er538     H511    10.0   1_545     S
Er538     Ti543    9.999   .     S
Er538     V542    10.0   1_655     S
Er538     H584    10.0   .     S
Er539     H510    10.0   1_455     S
Er539     V542    10.0   1_565     S
Er540     H424    10.0   1_545     S
Er540     Ti544    9.999   .     S
Er540     V542    10.0   .     S
Er541     V542    10.0   .     S
Er541     H583    10.0   1_455     S
V542     Er538    10.0   1_455     S
V542     Er539    10.0   1_545     S
Ti543     Ce507    10.0   1_545     S
Ti543     Ce582    10.0   .     S
Ti543     Ti544    10.0   1_655     S
Ti544     Ce435    10.0   1_545     S
Ti544     Ti543    10.0   1_455     S
H545     S561    10.0   .     S
H545     H546    10.0   .     S
H546     S569    10.0   .     S
H547     S551    10.0   .     S
H547     H548    10.0   .     S
H548     S575    10.0   .     S
S549     Ce550    9.999   .     S
S549     H558    10.0   .     S
S549     H564    10.0   .     S
S549     H565    10.0   .     S
S551     Ce552    9.999   .     S
S551     H554    10.0   .     S
S551     H559    10.0   .     S
H553     S555    10.0   .     S
H553     H554    10.0   .     S
S555     Ce556    9.999   .     S
S555     H557    10.0   .     S
S555     H568    10.0   .     S
H557     H558    10.0   .     S
H559     H560    10.0   .     S
H560     S561    10.0   .     S
S561     Ce562    9.999   .     S
S561     H563    10.0   .     S
H563     H564    10.0   .     S
H565     H566    10.0   .     S
H566     S581    10.0   .     S
H567     S577    10.0   .     S
H567     H568    10.0   .     S
S569     Ce570    9.999   .     S
S569     H572    10.0   .     S
S569     H573    10.0   .     S
Ce570     Ti340    10.0   1_655     S
H571     S581    10.0   .     S
H571     H572    10.0   .     S
H571     Er393    10.0   1_655     S
H573     H574    10.0   .     S
H573     Er345    10.0   1_655     S
H574     S575    10.0   .     S
S575     Ce576    9.999   .     S
S575     H579    10.0   .     S
Ce576     Ti488    10.0   1_655     S
S577     Ce578    9.999   .     S
S577     H580    10.0   .     S
S577     H583    10.0   .     S
Ce578     Ti537    10.0   1_655     S
H579     H580    10.0   .     S
H579     Er492    10.0   1_655     S
S581     Ce582    9.999   .     S
S581     H584    10.0   .     S
Ce582     Ti397    10.0   1_655     S
H583     H584    10.0   .     S
H583     Er541    10.0   1_655     S
