data_flga
_audit_creation_date              2020-02-04
_audit_creation_method            'Pymatgen'
_symmetry_space_group_name_H-M    'P1'
_symmetry_Int_Tables_number       1
loop_
_symmetry_equiv_pos_as_xyz
  x,y,z
_cell_length_a                    82.845
_cell_length_b                    82.845
_cell_length_c                    167.1784
_cell_angle_alpha                 90.0
_cell_angle_beta                 90.0
_cell_angle_gamma                 90.0
loop_
_atom_site_label
_atom_site_type_symbol
_atom_site_fract_x
_atom_site_fract_y
_atom_site_fract_z
Be1     Be     0.0293   0.9348   0.7578
C2     C     0.0312   0.9764   0.7016
Be3     Be     0.0293   0.0652   0.7422
C4     C     0.0312   0.0236   0.7984
H5     H     0.318   0.9716   0.8294
Er6     Er     0.4371   0.956   0.8346
V7     V     0.3642   0.9288   0.8804
H8     H     0.318   0.0284   0.6706
Er9     Er     0.4371   0.044   0.6654
V10     V     0.3642   0.0712   0.6196
Ti11     Ti     0.4422   0.1475   0.7504
S12     S     0.3219   0.1495   0.7465
Ce13     Ce     0.3845   0.2522   0.7423
N14     N     0.2244   0.0784   0.7472
B15     B     0.2254   0.0066   0.7952
He16     He     0.1209   0.1282   0.7655
Li17     Li     0.1347   0.0717   0.818
Ti18     Ti     0.4422   0.8525   0.7496
S19     S     0.3219   0.8505   0.7535
Ce20     Ce     0.3845   0.7478   0.7577
N21     N     0.2244   0.9216   0.7528
B22     B     0.2254   0.9934   0.7048
He23     He     0.1209   0.8718   0.7345
Li24     Li     0.1347   0.9283   0.682
Be25     Be     0.5293   0.9348   0.7422
C26     C     0.5312   0.9764   0.7984
Be27     Be     0.5293   0.0652   0.7578
C28     C     0.5312   0.0236   0.7016
H29     H     0.818   0.9716   0.6706
Er30     Er     0.9371   0.956   0.6654
V31     V     0.8642   0.9288   0.6196
H32     H     0.818   0.0284   0.8294
Er33     Er     0.9371   0.044   0.8346
V34     V     0.8642   0.0712   0.8804
Ti35     Ti     0.9422   0.1475   0.7496
S36     S     0.8219   0.1495   0.7535
Ce37     Ce     0.8845   0.2522   0.7577
N38     N     0.7244   0.0784   0.7528
B39     B     0.7254   0.0066   0.7048
He40     He     0.6209   0.1282   0.7345
Li41     Li     0.6347   0.0717   0.682
Ti42     Ti     0.9422   0.8525   0.7504
S43     S     0.8219   0.8505   0.7465
Ce44     Ce     0.8845   0.7478   0.7423
N45     N     0.7244   0.9216   0.7472
B46     B     0.7254   0.9934   0.7952
He47     He     0.6209   0.8718   0.7655
Li48     Li     0.6347   0.9283   0.818
Be49     Be     0.4707   0.4348   0.7578
C50     C     0.4688   0.4764   0.7016
Be51     Be     0.4707   0.5652   0.7422
C52     C     0.4688   0.5236   0.7984
H53     H     0.182   0.5284   0.6706
Er54     Er     0.0629   0.544   0.6654
V55     V     0.1358   0.5712   0.6196
H56     H     0.182   0.4716   0.8294
Er57     Er     0.0629   0.456   0.8346
V58     V     0.1358   0.4288   0.8804
Ti59     Ti     0.0578   0.6475   0.7504
S60     S     0.1781   0.6495   0.7465
Ce61     Ce     0.1155   0.7522   0.7423
N62     N     0.2756   0.5784   0.7472
B63     B     0.2746   0.5066   0.7952
He64     He     0.3791   0.6282   0.7655
Li65     Li     0.3653   0.5717   0.818
Ti66     Ti     0.0578   0.3525   0.7496
S67     S     0.1781   0.3505   0.7535
Ce68     Ce     0.1155   0.2478   0.7577
N69     N     0.2756   0.4216   0.7528
B70     B     0.2746   0.4934   0.7048
He71     He     0.3791   0.3718   0.7345
Li72     Li     0.3653   0.4283   0.682
Be73     Be     0.9707   0.5652   0.7578
C74     C     0.9688   0.5236   0.7016
Be75     Be     0.9707   0.4348   0.7422
C76     C     0.9688   0.4764   0.7984
H77     H     0.682   0.4716   0.6706
Er78     Er     0.5629   0.456   0.6654
V79     V     0.6358   0.4288   0.6196
H80     H     0.682   0.5284   0.8294
Er81     Er     0.5629   0.544   0.8346
V82     V     0.6358   0.5712   0.8804
Ti83     Ti     0.5578   0.6475   0.7496
S84     S     0.6781   0.6495   0.7535
Ce85     Ce     0.6155   0.7522   0.7577
N86     N     0.7756   0.5784   0.7528
B87     B     0.7746   0.5066   0.7048
He88     He     0.8791   0.6282   0.7345
Li89     Li     0.8653   0.5717   0.682
Ti90     Ti     0.5578   0.3525   0.7504
S91     S     0.6781   0.3505   0.7465
Ce92     Ce     0.6155   0.2478   0.7423
N93     N     0.7756   0.4216   0.7472
B94     B     0.7746   0.4934   0.7952
He95     He     0.8791   0.3718   0.7655
Li96     Li     0.8653   0.4283   0.818
Be97     Be     0.8152   0.7793   0.4922
C98     C     0.7736   0.7812   0.5484
Be99     Be     0.6848   0.7793   0.5078
C100     C     0.7264   0.7812   0.4516
H101     H     0.7784   0.068   0.4206
Er102     Er     0.794   0.1871   0.4154
V103     V     0.8212   0.1142   0.3696
H104     H     0.7216   0.068   0.5794
Er105     Er     0.706   0.1871   0.5846
V106     V     0.6788   0.1142   0.6304
Ti107     Ti     0.6025   0.1922   0.4996
S108     S     0.6005   0.0719   0.5035
Ce109     Ce     0.4978   0.1345   0.5077
N110     N     0.6716   0.9744   0.5028
B111     B     0.7434   0.9754   0.4548
He112     He     0.6218   0.8709   0.4845
Li113     Li     0.6783   0.8847   0.432
Ti114     Ti     0.8975   0.1922   0.5004
S115     S     0.8995   0.0719   0.4965
Ce116     Ce     0.0022   0.1345   0.4923
N117     N     0.8284   0.9744   0.4972
B118     B     0.7566   0.9754   0.5452
He119     He     0.8782   0.8709   0.5155
Li120     Li     0.8217   0.8847   0.568
Be121     Be     0.8152   0.2793   0.5078
C122     C     0.7736   0.2812   0.4516
Be123     Be     0.6848   0.2793   0.4922
C124     C     0.7264   0.2812   0.5484
H125     H     0.7784   0.568   0.5794
Er126     Er     0.794   0.6871   0.5846
V127     V     0.8212   0.6142   0.6304
H128     H     0.7216   0.568   0.4206
Er129     Er     0.706   0.6871   0.4154
V130     V     0.6788   0.6142   0.3696
Ti131     Ti     0.6025   0.6922   0.5004
S132     S     0.6005   0.5719   0.4965
Ce133     Ce     0.4978   0.6345   0.4923
N134     N     0.6716   0.4744   0.4972
B135     B     0.7434   0.4754   0.5452
He136     He     0.6218   0.3709   0.5155
Li137     Li     0.6783   0.3847   0.568
Ti138     Ti     0.8975   0.6922   0.4996
S139     S     0.8995   0.5719   0.5035
Ce140     Ce     0.0023   0.6345   0.5077
N141     N     0.8284   0.4744   0.5028
B142     B     0.7566   0.4754   0.4548
He143     He     0.8782   0.3709   0.4845
Li144     Li     0.8217   0.3847   0.432
Be145     Be     0.1848   0.7207   0.4922
C146     C     0.2264   0.7188   0.5484
Be147     Be     0.3152   0.7207   0.5078
C148     C     0.2736   0.7188   0.4516
H149     H     0.2784   0.432   0.5794
Er150     Er     0.294   0.3129   0.5846
V151     V     0.3212   0.3858   0.6304
H152     H     0.2216   0.432   0.4206
Er153     Er     0.206   0.3129   0.4154
V154     V     0.1788   0.3858   0.3696
Ti155     Ti     0.3975   0.3078   0.4996
S156     S     0.3995   0.4281   0.5035
Ce157     Ce     0.5022   0.3655   0.5077
N158     N     0.3284   0.5256   0.5028
B159     B     0.2566   0.5246   0.4548
He160     He     0.3782   0.6291   0.4845
Li161     Li     0.3217   0.6153   0.432
Ti162     Ti     0.1025   0.3078   0.5004
S163     S     0.1005   0.4281   0.4965
Ce164     Ce     0.9978   0.3655   0.4923
N165     N     0.1716   0.5256   0.4972
B166     B     0.2434   0.5246   0.5452
He167     He     0.1218   0.6291   0.5155
Li168     Li     0.1783   0.6153   0.568
Be169     Be     0.1848   0.2207   0.5078
C170     C     0.2264   0.2188   0.4516
Be171     Be     0.3152   0.2207   0.4922
C172     C     0.2736   0.2188   0.5484
H173     H     0.2216   0.932   0.5794
Er174     Er     0.206   0.8129   0.5846
V175     V     0.1788   0.8858   0.6304
H176     H     0.2784   0.932   0.4206
Er177     Er     0.294   0.8129   0.4154
V178     V     0.3212   0.8858   0.3696
Ti179     Ti     0.1025   0.8078   0.4996
S180     S     0.1005   0.9281   0.5035
Ce181     Ce     0.9978   0.8655   0.5077
N182     N     0.1716   0.0256   0.5028
B183     B     0.2434   0.0246   0.4548
He184     He     0.1218   0.1291   0.4845
Li185     Li     0.1783   0.1153   0.432
Ti186     Ti     0.3975   0.8078   0.5004
S187     S     0.3995   0.9281   0.4965
Ce188     Ce     0.5022   0.8655   0.4923
N189     N     0.3284   0.0256   0.4972
B190     B     0.2566   0.0246   0.5452
He191     He     0.3782   0.1291   0.5155
Li192     Li     0.3217   0.1153   0.568
Be193     Be     0.3152   0.7793   0.0078
C194     C     0.2736   0.7812   0.9516
Be195     Be     0.1848   0.7793   0.9922
C196     C     0.2264   0.7812   0.0484
H197     H     0.2216   0.068   0.9206
Er198     Er     0.206   0.1871   0.9154
V199     V     0.1788   0.1142   0.8696
H200     H     0.2784   0.068   0.0794
Er201     Er     0.294   0.1871   0.0846
V202     V     0.3212   0.1142   0.1304
Ti203     Ti     0.1025   0.1922   0.0004
S204     S     0.1005   0.0719   0.9965
Ce205     Ce     0.9978   0.1345   0.9923
N206     N     0.1716   0.9744   0.9972
B207     B     0.2434   0.9754   0.0452
He208     He     0.1218   0.8709   0.0155
Li209     Li     0.1783   0.8847   0.068
Ti210     Ti     0.3975   0.1922   0.9996
S211     S     0.3995   0.0719   0.0035
Ce212     Ce     0.5022   0.1345   0.0077
N213     N     0.3284   0.9744   0.0028
B214     B     0.2566   0.9754   0.9548
He215     He     0.3782   0.8709   0.9845
Li216     Li     0.3217   0.8847   0.932
Be217     Be     0.1848   0.2793   0.0078
C218     C     0.2264   0.2812   0.9516
Be219     Be     0.3152   0.2793   0.9922
C220     C     0.2736   0.2812   0.0484
H221     H     0.2784   0.568   0.9206
Er222     Er     0.294   0.6871   0.9154
V223     V     0.3212   0.6142   0.8696
H224     H     0.2216   0.568   0.0794
Er225     Er     0.206   0.6871   0.0846
V226     V     0.1788   0.6142   0.1304
Ti227     Ti     0.3975   0.6922   0.0004
S228     S     0.3995   0.5719   0.9965
Ce229     Ce     0.5022   0.6345   0.9923
N230     N     0.3284   0.4744   0.9972
B231     B     0.2566   0.4754   0.0452
He232     He     0.3782   0.3709   0.0155
Li233     Li     0.3217   0.3847   0.068
Ti234     Ti     0.1025   0.6922   0.9996
S235     S     0.1005   0.5719   0.0035
Ce236     Ce     0.9978   0.6345   0.0077
N237     N     0.1716   0.4744   0.0028
B238     B     0.2434   0.4754   0.9548
He239     He     0.1218   0.3709   0.9845
Li240     Li     0.1783   0.3847   0.932
Be241     Be     0.6848   0.2207   0.9922
C242     C     0.7264   0.2188   0.0484
Be243     Be     0.8152   0.2207   0.0078
C244     C     0.7736   0.2188   0.9516
H245     H     0.7216   0.932   0.9206
Er246     Er     0.706   0.8129   0.9154
V247     V     0.6788   0.8858   0.8696
H248     H     0.7784   0.932   0.0794
Er249     Er     0.794   0.8129   0.0846
V250     V     0.8212   0.8858   0.1304
Ti251     Ti     0.6025   0.8078   0.0004
S252     S     0.6005   0.9281   0.9965
Ce253     Ce     0.4978   0.8655   0.9923
N254     N     0.6716   0.0256   0.9972
B255     B     0.7434   0.0246   0.0452
He256     He     0.6218   0.1291   0.0155
Li257     Li     0.6783   0.1153   0.068
Ti258     Ti     0.8975   0.8078   0.9996
S259     S     0.8995   0.9281   0.0035
Ce260     Ce     0.0022   0.8655   0.0077
N261     N     0.8284   0.0256   0.0028
B262     B     0.7566   0.0246   0.9548
He263     He     0.8782   0.1291   0.9845
Li264     Li     0.8217   0.1153   0.932
Be265     Be     0.8152   0.7207   0.9922
C266     C     0.7736   0.7188   0.0484
Be267     Be     0.6848   0.7207   0.0078
C268     C     0.7264   0.7188   0.9516
H269     H     0.7784   0.432   0.9206
Er270     Er     0.794   0.3129   0.9154
V271     V     0.8212   0.3858   0.8696
H272     H     0.7216   0.432   0.0794
Er273     Er     0.706   0.3129   0.0846
V274     V     0.6788   0.3858   0.1304
Ti275     Ti     0.8975   0.3078   0.0004
S276     S     0.8995   0.4281   0.9965
Ce277     Ce     0.0023   0.3655   0.9923
N278     N     0.8284   0.5256   0.9972
B279     B     0.7566   0.5246   0.0452
He280     He     0.8782   0.6291   0.0155
Li281     Li     0.8217   0.6153   0.068
Ti282     Ti     0.6025   0.3078   0.9996
S283     S     0.6005   0.4281   0.0035
Ce284     Ce     0.4978   0.3655   0.0077
N285     N     0.6716   0.5256   0.0028
B286     B     0.7434   0.5246   0.9548
He287     He     0.6218   0.6291   0.9845
Li288     Li     0.6783   0.6153   0.932
Be289     Be     0.5293   0.4348   0.2578
C290     C     0.5312   0.4764   0.2016
Be291     Be     0.5293   0.5652   0.2422
C292     C     0.5312   0.5236   0.2984
H293     H     0.818   0.4716   0.3294
Er294     Er     0.9371   0.456   0.3346
V295     V     0.8642   0.4288   0.3804
H296     H     0.818   0.5284   0.1706
Er297     Er     0.9371   0.544   0.1654
V298     V     0.8642   0.5712   0.1196
Ti299     Ti     0.9422   0.3525   0.2496
S300     S     0.8219   0.3505   0.2535
Ce301     Ce     0.8845   0.2478   0.2577
N302     N     0.7244   0.4216   0.2528
B303     B     0.7254   0.4934   0.2048
He304     He     0.6209   0.3718   0.2345
Li305     Li     0.6347   0.4283   0.182
Ti306     Ti     0.9422   0.6475   0.2504
S307     S     0.8219   0.6495   0.2465
Ce308     Ce     0.8845   0.7522   0.2423
N309     N     0.7244   0.5784   0.2472
B310     B     0.7254   0.5066   0.2952
He311     He     0.6209   0.6282   0.2655
Li312     Li     0.6347   0.5717   0.318
Be313     Be     0.0293   0.4348   0.2422
C314     C     0.0312   0.4764   0.2984
Be315     Be     0.0293   0.5652   0.2578
C316     C     0.0312   0.5236   0.2016
H317     H     0.318   0.5284   0.3294
Er318     Er     0.4371   0.544   0.3346
V319     V     0.3642   0.5712   0.3804
H320     H     0.318   0.4716   0.1706
Er321     Er     0.4371   0.456   0.1654
V322     V     0.3642   0.4288   0.1196
Ti323     Ti     0.4422   0.3525   0.2504
S324     S     0.3219   0.3505   0.2465
Ce325     Ce     0.3845   0.2478   0.2423
N326     N     0.2244   0.4216   0.2472
B327     B     0.2254   0.4934   0.2952
He328     He     0.1209   0.3718   0.2655
Li329     Li     0.1347   0.4283   0.318
Ti330     Ti     0.4422   0.6475   0.2496
S331     S     0.3219   0.6495   0.2535
Ce332     Ce     0.3845   0.7522   0.2577
N333     N     0.2244   0.5784   0.2528
B334     B     0.2254   0.5066   0.2048
He335     He     0.1209   0.6282   0.2345
Li336     Li     0.1347   0.5717   0.182
Be337     Be     0.4707   0.9348   0.2422
C338     C     0.4688   0.9764   0.2984
Be339     Be     0.4707   0.0652   0.2578
C340     C     0.4688   0.0236   0.2016
H341     H     0.182   0.9716   0.1706
Er342     Er     0.0629   0.956   0.1654
V343     V     0.1358   0.9288   0.1196
H344     H     0.182   0.0284   0.3294
Er345     Er     0.0629   0.044   0.3346
V346     V     0.1358   0.0712   0.3804
Ti347     Ti     0.0578   0.1475   0.2496
S348     S     0.1781   0.1495   0.2535
Ce349     Ce     0.1155   0.2522   0.2577
N350     N     0.2756   0.0784   0.2528
B351     B     0.2746   0.0066   0.2048
He352     He     0.3791   0.1282   0.2345
Li353     Li     0.3653   0.0717   0.182
Ti354     Ti     0.0578   0.8525   0.2504
S355     S     0.1781   0.8505   0.2465
Ce356     Ce     0.1155   0.7478   0.2423
N357     N     0.2756   0.9216   0.2472
B358     B     0.2746   0.9934   0.2952
He359     He     0.3791   0.8718   0.2655
Li360     Li     0.3653   0.9283   0.318
Be361     Be     0.9707   0.9348   0.2578
C362     C     0.9688   0.9764   0.2016
Be363     Be     0.9707   0.0652   0.2422
C364     C     0.9688   0.0236   0.2984
H365     H     0.682   0.9716   0.3294
Er366     Er     0.5629   0.956   0.3346
V367     V     0.6358   0.9288   0.3804
H368     H     0.682   0.0284   0.1706
Er369     Er     0.5629   0.044   0.1654
V370     V     0.6358   0.0712   0.1196
Ti371     Ti     0.5578   0.8525   0.2496
S372     S     0.6781   0.8505   0.2535
Ce373     Ce     0.6155   0.7478   0.2577
N374     N     0.7756   0.9216   0.2528
B375     B     0.7746   0.9934   0.2048
He376     He     0.8791   0.8718   0.2345
Li377     Li     0.8653   0.9283   0.182
Ti378     Ti     0.5578   0.1475   0.2504
S379     S     0.6781   0.1495   0.2465
Ce380     Ce     0.6155   0.2522   0.2423
N381     N     0.7756   0.0784   0.2472
B382     B     0.7746   0.0066   0.2952
He383     He     0.8791   0.1282   0.2655
Li384     Li     0.8653   0.0717   0.318
loop_
_geom_bond_atom_site_label_1
_geom_bond_atom_site_label_2
_geom_bond_distance
_geom_bond_site_symmetry_2
_ccdc_geom_bond_type
Be1     C2    9.994   .     S
Be1     He23    10.0   .     S
Be1     Ti42    10.003   1_455     S
Be1     C4    10.01   1_565     S
C2     Li24    10.009   .     S
C2     Be3    10.01   1_565     S
C2     Er30    10.012   1_455     S
Be3     C4    9.994   .     S
Be3     He16    10.0   .     S
Be3     Ti35    10.003   1_455     S
Be3     C2    10.01   1_545     S
C4     Li17    10.009   .     S
C4     Be1    10.01   1_545     S
C4     Er33    10.012   1_455     S
H5     Er6    9.991   .     S
H5     V7    9.993   .     S
H5     B15    9.999   1_565     S
Er6     V7    10.008   .     S
Er6     C26    10.012   .     S
V7     Li216    10.016   .     S
H8     Er9    9.991   .     S
H8     V10    9.993   .     S
H8     B22    9.999   1_545     S
Er9     V10    10.008   .     S
Er9     C28    10.012   .     S
V10     Li192    10.016   .     S
Ti11     S12    9.99   .     S
Ti11     Ce13    9.999   .     S
Ti11     Be27    10.003   .     S
S12     Ce13    9.994   .     S
S12     N14    9.996   .     S
Ce13     He71    10.004   .     S
N14     B15    9.99   .     S
N14     B22    9.997   1_545     S
N14     He16    9.996   .     S
B15     H5    9.999   1_545     S
B15     N21    9.997   1_545     S
B15     Li17    10.0   .     S
He16     Li17    9.999   .     S
He16     Ce68    10.004   .     S
Li17     V199    10.016   .     S
Ti18     S19    9.99   .     S
Ti18     Ce20    9.999   .     S
Ti18     Be25    10.003   .     S
S19     Ce20    9.994   .     S
S19     N21    9.996   .     S
Ce20     He64    10.004   .     S
N21     B22    9.99   .     S
N21     B15    9.997   1_565     S
N21     He23    9.996   .     S
B22     H8    9.999   1_565     S
B22     N14    9.997   1_565     S
B22     Li24    10.0   .     S
He23     Li24    9.999   .     S
He23     Ce61    10.004   .     S
Li24     V175    10.016   .     S
Be25     C26    9.994   .     S
Be25     He47    10.0   .     S
Be25     C28    10.01   1_565     S
C26     Li48    10.009   .     S
C26     Be27    10.01   1_565     S
Be27     C28    9.994   .     S
Be27     He40    10.0   .     S
Be27     C26    10.01   1_545     S
C28     Li41    10.009   .     S
C28     Be25    10.01   1_545     S
H29     Er30    9.991   .     S
H29     V31    9.993   .     S
H29     B39    9.999   1_565     S
Er30     V31    10.008   .     S
Er30     C2    10.012   1_655     S
V31     Li120    10.016   .     S
H32     Er33    9.991   .     S
H32     V34    9.993   .     S
H32     B46    9.999   1_545     S
Er33     V34    10.008   .     S
Er33     C4    10.012   1_655     S
V34     Li264    10.016   .     S
Ti35     S36    9.99   .     S
Ti35     Ce37    9.999   .     S
Ti35     Be3    10.003   1_655     S
S36     Ce37    9.994   .     S
S36     N38    9.996   .     S
Ce37     He95    10.004   .     S
N38     B39    9.99   .     S
N38     B46    9.997   1_545     S
N38     He40    9.996   .     S
B39     H29    9.999   1_545     S
B39     N45    9.997   1_545     S
B39     Li41    10.0   .     S
He40     Li41    9.999   .     S
He40     Ce92    10.004   .     S
Li41     V106    10.016   .     S
Ti42     S43    9.99   .     S
Ti42     Ce44    9.999   .     S
Ti42     Be1    10.003   1_655     S
S43     Ce44    9.994   .     S
S43     N45    9.996   .     S
Ce44     He88    10.004   .     S
N45     B46    9.99   .     S
N45     B39    9.997   1_565     S
N45     He47    9.996   .     S
B46     H32    9.999   1_565     S
B46     N38    9.997   1_565     S
B46     Li48    10.0   .     S
He47     Li48    9.999   .     S
He47     Ce85    10.004   .     S
Li48     V247    10.016   .     S
Be49     C50    9.994   .     S
Be49     He71    10.0   .     S
Be49     Ti90    10.003   .     S
Be49     C52    10.01   .     S
C50     Li72    10.009   .     S
C50     Be51    10.01   .     S
C50     Er78    10.012   .     S
Be51     C52    9.994   .     S
Be51     He64    10.0   .     S
Be51     Ti83    10.003   .     S
C52     Li65    10.009   .     S
C52     Er81    10.012   .     S
H53     Er54    9.991   .     S
H53     V55    9.993   .     S
H53     B70    9.999   .     S
Er54     V55    10.008   .     S
Er54     C74    10.012   1_455     S
V55     Li168    10.016   .     S
H56     Er57    9.991   .     S
H56     V58    9.993   .     S
H56     B63    9.999   .     S
Er57     V58    10.008   .     S
Er57     C76    10.012   1_455     S
V58     Li240    10.016   .     S
Ti59     S60    9.99   .     S
Ti59     Ce61    9.999   .     S
Ti59     Be73    10.003   1_455     S
S60     Ce61    9.994   .     S
S60     N62    9.996   .     S
N62     B63    9.99   .     S
N62     B70    9.997   .     S
N62     He64    9.996   .     S
B63     N69    9.997   .     S
B63     Li65    10.0   .     S
He64     Li65    9.999   .     S
Li65     V223    10.016   .     S
Ti66     S67    9.99   .     S
Ti66     Ce68    9.999   .     S
Ti66     Be75    10.003   1_455     S
S67     Ce68    9.994   .     S
S67     N69    9.996   .     S
N69     B70    9.99   .     S
N69     He71    9.996   .     S
B70     Li72    10.0   .     S
He71     Li72    9.999   .     S
Li72     V151    10.016   .     S
Be73     Ti59    10.003   1_655     S
Be73     C74    9.994   .     S
Be73     He88    10.0   .     S
Be73     C76    10.01   .     S
C74     Li89    10.009   .     S
C74     Be75    10.01   .     S
C74     Er54    10.012   1_655     S
Be75     Ti66    10.003   1_655     S
Be75     C76    9.994   .     S
Be75     He95    10.0   .     S
C76     Li96    10.009   .     S
C76     Er57    10.012   1_655     S
H77     Er78    9.991   .     S
H77     V79    9.993   .     S
H77     B87    9.999   .     S
Er78     V79    10.008   .     S
V79     Li137    10.016   .     S
H80     Er81    9.991   .     S
H80     V82    9.993   .     S
H80     B94    9.999   .     S
Er81     V82    10.008   .     S
V82     Li288    10.016   .     S
Ti83     S84    9.99   .     S
Ti83     Ce85    9.999   .     S
S84     Ce85    9.994   .     S
S84     N86    9.996   .     S
N86     B87    9.99   .     S
N86     B94    9.997   .     S
N86     He88    9.996   .     S
B87     N93    9.997   .     S
B87     Li89    10.0   .     S
He88     Li89    9.999   .     S
Li89     V127    10.016   .     S
Ti90     S91    9.99   .     S
Ti90     Ce92    9.999   .     S
S91     Ce92    9.994   .     S
S91     N93    9.996   .     S
N93     B94    9.99   .     S
N93     He95    9.996   .     S
B94     Li96    10.0   .     S
He95     Li96    9.999   .     S
Li96     V271    10.016   .     S
Be97     C98    9.994   .     S
Be97     He119    10.0   .     S
Be97     Ti138    10.003   .     S
Be97     C100    10.01   .     S
C98     Li120    10.009   .     S
C98     Be99    10.01   .     S
C98     Er126    10.012   .     S
Be99     C100    9.994   .     S
Be99     He112    10.0   .     S
Be99     Ti131    10.003   .     S
C100     Li113    10.009   .     S
C100     Er129    10.012   .     S
H101     Er102    9.991   .     S
H101     V103    9.993   .     S
H101     B111    9.999   1_545     S
Er102     V103    10.008   .     S
Er102     C122    10.012   .     S
V103     Li384    10.016   .     S
H104     Er105    9.991   .     S
H104     V106    9.993   .     S
H104     B118    9.999   1_545     S
Er105     V106    10.008   .     S
Er105     C124    10.012   .     S
Ti107     S108    9.99   .     S
Ti107     Ce109    9.999   .     S
Ti107     Be123    10.003   .     S
S108     Ce109    9.994   .     S
S108     N110    9.996   1_545     S
Ce109     He191    10.004   .     S
N110     B111    9.99   .     S
N110     B118    9.997   .     S
N110     S108    9.996   1_565     S
N110     He112    9.996   .     S
B111     H101    9.999   1_565     S
B111     N117    9.997   .     S
B111     Li113    10.0   .     S
He112     Li113    9.999   .     S
He112     Ce188    10.004   .     S
Li113     V367    10.016   .     S
Ti114     S115    9.99   .     S
Ti114     Ce116    9.999   1_655     S
Ti114     Be121    10.003   .     S
S115     Ce116    9.994   1_655     S
S115     N117    9.996   1_545     S
Ce116     S115    9.994   1_455     S
Ce116     Ti114    9.999   1_455     S
Ce116     He184    10.004   .     S
N117     B118    9.99   .     S
N117     S115    9.996   1_565     S
N117     He119    9.996   .     S
B118     H104    9.999   1_565     S
B118     Li120    10.0   .     S
He119     Li120    9.999   .     S
He119     Ce181    10.004   .     S
Be121     C122    9.994   .     S
Be121     He143    10.0   .     S
Be121     C124    10.01   .     S
C122     Li144    10.009   .     S
C122     Be123    10.01   .     S
Be123     C124    9.994   .     S
Be123     He136    10.0   .     S
C124     Li137    10.009   .     S
H125     Er126    9.991   .     S
H125     V127    9.993   .     S
H125     B135    9.999   .     S
Er126     V127    10.008   .     S
H128     Er129    9.991   .     S
H128     V130    9.993   .     S
H128     B142    9.999   .     S
Er129     V130    10.008   .     S
V130     Li312    10.016   .     S
Ti131     S132    9.99   .     S
Ti131     Ce133    9.999   .     S
S132     Ce133    9.994   .     S
S132     N134    9.996   .     S
Ce133     He160    10.004   .     S
N134     B135    9.99   .     S
N134     B142    9.997   .     S
N134     He136    9.996   .     S
B135     N141    9.997   .     S
B135     Li137    10.0   .     S
He136     Li137    9.999   .     S
He136     Ce157    10.004   .     S
Ti138     S139    9.99   .     S
Ti138     Ce140    9.999   1_655     S
S139     Ce140    9.994   1_655     S
S139     N141    9.996   .     S
Ce140     S139    9.994   1_455     S
Ce140     Ti138    9.999   1_455     S
Ce140     He167    10.004   .     S
N141     B142    9.99   .     S
N141     He143    9.996   .     S
B142     Li144    10.0   .     S
He143     Li144    9.999   .     S
He143     Ce164    10.004   .     S
Li144     V295    10.016   .     S
Be145     C146    9.994   .     S
Be145     He167    10.0   .     S
Be145     Ti179    10.003   .     S
Be145     C148    10.01   .     S
C146     Li168    10.009   .     S
C146     Be147    10.01   .     S
C146     Er174    10.012   .     S
Be147     C148    9.994   .     S
Be147     He160    10.0   .     S
Be147     Ti186    10.003   .     S
C148     Li161    10.009   .     S
C148     Er177    10.012   .     S
H149     Er150    9.991   .     S
H149     V151    9.993   .     S
H149     B166    9.999   .     S
Er150     V151    10.008   .     S
Er150     C172    10.012   .     S
H152     Er153    9.991   .     S
H152     V154    9.993   .     S
H152     B159    9.999   .     S
Er153     V154    10.008   .     S
Er153     C170    10.012   .     S
V154     Li329    10.016   .     S
Ti155     S156    9.99   .     S
Ti155     Ce157    9.999   .     S
Ti155     Be171    10.003   .     S
S156     Ce157    9.994   .     S
S156     N158    9.996   .     S
N158     B159    9.99   .     S
N158     B166    9.997   .     S
N158     He160    9.996   .     S
B159     N165    9.997   .     S
B159     Li161    10.0   .     S
He160     Li161    9.999   .     S
Li161     V319    10.016   .     S
Ti162     S163    9.99   .     S
Ti162     Ce164    9.999   1_455     S
Ti162     Be169    10.003   .     S
S163     Ce164    9.994   1_455     S
S163     N165    9.996   .     S
Ce164     S163    9.994   1_655     S
Ce164     Ti162    9.999   1_655     S
N165     B166    9.99   .     S
N165     He167    9.996   .     S
B166     Li168    10.0   .     S
He167     Li168    9.999   .     S
Be169     C170    9.994   .     S
Be169     He184    10.0   .     S
Be169     C172    10.01   .     S
C170     Li185    10.009   .     S
C170     Be171    10.01   .     S
Be171     C172    9.994   .     S
Be171     He191    10.0   .     S
C172     Li192    10.009   .     S
H173     Er174    9.991   .     S
H173     V175    9.993   .     S
H173     B190    9.999   1_565     S
Er174     V175    10.008   .     S
H176     Er177    9.991   .     S
H176     V178    9.993   .     S
H176     B183    9.999   1_565     S
Er177     V178    10.008   .     S
V178     Li360    10.016   .     S
Ti179     S180    9.99   .     S
Ti179     Ce181    9.999   1_455     S
S180     Ce181    9.994   1_455     S
S180     N182    9.996   1_565     S
Ce181     S180    9.994   1_655     S
Ce181     Ti179    9.999   1_655     S
N182     B183    9.99   .     S
N182     B190    9.997   .     S
N182     S180    9.996   1_545     S
N182     He184    9.996   .     S
B183     H176    9.999   1_545     S
B183     N189    9.997   .     S
B183     Li185    10.0   .     S
He184     Li185    9.999   .     S
Li185     V346    10.016   .     S
Ti186     S187    9.99   .     S
Ti186     Ce188    9.999   .     S
S187     Ce188    9.994   .     S
S187     N189    9.996   1_565     S
N189     B190    9.99   .     S
N189     S187    9.996   1_545     S
N189     He191    9.996   .     S
B190     H173    9.999   1_545     S
B190     Li192    10.0   .     S
He191     Li192    9.999   .     S
Be193     C194    9.994   1_554     S
Be193     He215    10.0   1_554     S
Be193     Ti227    10.003   .     S
Be193     C196    10.01   .     S
C194     Be193    9.994   1_556     S
C194     Li216    10.009   .     S
C194     Be195    10.01   .     S
C194     Er222    10.012   .     S
Be195     C196    9.994   1_556     S
Be195     He208    10.0   1_556     S
Be195     Ti234    10.003   .     S
C196     Be195    9.994   1_554     S
C196     Li209    10.009   .     S
C196     Er225    10.012   .     S
H197     Er198    9.991   .     S
H197     V199    9.993   .     S
H197     B214    9.999   1_545     S
Er198     V199    10.008   .     S
Er198     C218    10.012   .     S
H200     Er201    9.991   .     S
H200     V202    9.993   .     S
H200     B207    9.999   1_545     S
Er201     V202    10.008   .     S
Er201     C220    10.012   .     S
V202     Li353    10.016   .     S
Ti203     S204    9.99   1_554     S
Ti203     Ce205    9.999   1_454     S
Ti203     Be217    10.003   .     S
S204     Ti203    9.99   1_556     S
S204     Ce205    9.994   1_455     S
S204     N206    9.996   1_545     S
Ce205     S204    9.994   1_655     S
Ce205     Ti203    9.999   1_656     S
Ce205     He263    10.004   .     S
N206     B207    9.99   1_556     S
N206     B214    9.997   .     S
N206     S204    9.996   1_565     S
N206     He208    9.996   1_556     S
B207     H200    9.999   1_565     S
B207     N206    9.99   1_554     S
B207     N213    9.997   .     S
B207     Li209    10.0   .     S
He208     Be195    10.0   1_554     S
He208     N206    9.996   1_554     S
He208     Li209    9.999   .     S
He208     Ce260    10.004   .     S
Li209     V343    10.016   .     S
Ti210     S211    9.99   1_556     S
Ti210     Ce212    9.999   1_556     S
Ti210     Be219    10.003   .     S
S211     Ti210    9.99   1_554     S
S211     Ce212    9.994   .     S
S211     N213    9.996   1_545     S
Ce212     Ti210    9.999   1_554     S
Ce212     He256    10.004   .     S
N213     B214    9.99   1_554     S
N213     S211    9.996   1_565     S
N213     He215    9.996   1_554     S
B214     H197    9.999   1_565     S
B214     N213    9.99   1_556     S
B214     Li216    10.0   .     S
He215     Be193    10.0   1_556     S
He215     N213    9.996   1_556     S
He215     Li216    9.999   .     S
He215     Ce253    10.004   .     S
Be217     C218    9.994   1_554     S
Be217     He239    10.0   1_554     S
Be217     C220    10.01   .     S
C218     Be217    9.994   1_556     S
C218     Li240    10.009   .     S
C218     Be219    10.01   .     S
Be219     C220    9.994   1_556     S
Be219     He232    10.0   1_556     S
C220     Be219    9.994   1_554     S
C220     Li233    10.009   .     S
H221     Er222    9.991   .     S
H221     V223    9.993   .     S
H221     B238    9.999   .     S
Er222     V223    10.008   .     S
H224     Er225    9.991   .     S
H224     V226    9.993   .     S
H224     B231    9.999   .     S
Er225     V226    10.008   .     S
V226     Li336    10.016   .     S
Ti227     S228    9.99   1_554     S
Ti227     Ce229    9.999   1_554     S
S228     Ti227    9.99   1_556     S
S228     Ce229    9.994   .     S
S228     N230    9.996   .     S
Ce229     Ti227    9.999   1_556     S
Ce229     He287    10.004   .     S
N230     B231    9.99   1_556     S
N230     B238    9.997   .     S
N230     He232    9.996   1_556     S
B231     N230    9.99   1_554     S
B231     N237    9.997   .     S
B231     Li233    10.0   .     S
He232     Be219    10.0   1_554     S
He232     N230    9.996   1_554     S
He232     Li233    9.999   .     S
He232     Ce284    10.004   .     S
Li233     V322    10.016   .     S
Ti234     S235    9.99   1_556     S
Ti234     Ce236    9.999   1_456     S
S235     Ti234    9.99   1_554     S
S235     Ce236    9.994   1_455     S
S235     N237    9.996   .     S
Ce236     S235    9.994   1_655     S
Ce236     Ti234    9.999   1_654     S
Ce236     He280    10.004   .     S
N237     B238    9.99   1_554     S
N237     He239    9.996   1_554     S
B238     N237    9.99   1_556     S
B238     Li240    10.0   .     S
He239     Be217    10.0   1_556     S
He239     N237    9.996   1_556     S
He239     Li240    9.999   .     S
He239     Ce277    10.004   .     S
Be241     C242    9.994   1_556     S
Be241     He256    10.0   1_556     S
Be241     Ti282    10.003   .     S
Be241     C244    10.01   .     S
C242     Be241    9.994   1_554     S
C242     Li257    10.009   .     S
C242     Be243    10.01   .     S
C242     Er273    10.012   .     S
Be243     C244    9.994   1_554     S
Be243     He263    10.0   1_554     S
Be243     Ti275    10.003   .     S
C244     Be243    9.994   1_556     S
C244     Li264    10.009   .     S
C244     Er270    10.012   .     S
H245     Er246    9.991   .     S
H245     V247    9.993   .     S
H245     B262    9.999   1_565     S
Er246     V247    10.008   .     S
Er246     C268    10.012   .     S
H248     Er249    9.991   .     S
H248     V250    9.993   .     S
H248     B255    9.999   1_565     S
Er249     V250    10.008   .     S
Er249     C266    10.012   .     S
V250     Li377    10.016   .     S
Ti251     S252    9.99   1_554     S
Ti251     Ce253    9.999   1_554     S
Ti251     Be267    10.003   .     S
S252     Ti251    9.99   1_556     S
S252     Ce253    9.994   .     S
S252     N254    9.996   1_565     S
Ce253     Ti251    9.999   1_556     S
N254     B255    9.99   1_556     S
N254     B262    9.997   .     S
N254     S252    9.996   1_545     S
N254     He256    9.996   1_556     S
B255     H248    9.999   1_545     S
B255     N254    9.99   1_554     S
B255     N261    9.997   .     S
B255     Li257    10.0   .     S
He256     Be241    10.0   1_554     S
He256     N254    9.996   1_554     S
He256     Li257    9.999   .     S
Li257     V370    10.016   .     S
Ti258     S259    9.99   1_556     S
Ti258     Ce260    9.999   1_656     S
Ti258     Be265    10.003   .     S
S259     Ti258    9.99   1_554     S
S259     Ce260    9.994   1_655     S
S259     N261    9.996   1_565     S
Ce260     S259    9.994   1_455     S
Ce260     Ti258    9.999   1_454     S
N261     B262    9.99   1_554     S
N261     S259    9.996   1_545     S
N261     He263    9.996   1_554     S
B262     H245    9.999   1_545     S
B262     N261    9.99   1_556     S
B262     Li264    10.0   .     S
He263     Be243    10.0   1_556     S
He263     N261    9.996   1_556     S
He263     Li264    9.999   .     S
Be265     C266    9.994   1_556     S
Be265     He280    10.0   1_556     S
Be265     C268    10.01   .     S
C266     Be265    9.994   1_554     S
C266     Li281    10.009   .     S
C266     Be267    10.01   .     S
Be267     C268    9.994   1_554     S
Be267     He287    10.0   1_554     S
C268     Be267    9.994   1_556     S
C268     Li288    10.009   .     S
H269     Er270    9.991   .     S
H269     V271    9.993   .     S
H269     B286    9.999   .     S
Er270     V271    10.008   .     S
H272     Er273    9.991   .     S
H272     V274    9.993   .     S
H272     B279    9.999   .     S
Er273     V274    10.008   .     S
V274     Li305    10.016   .     S
Ti275     S276    9.99   1_554     S
Ti275     Ce277    9.999   1_654     S
S276     Ti275    9.99   1_556     S
S276     Ce277    9.994   1_655     S
S276     N278    9.996   .     S
Ce277     S276    9.994   1_455     S
Ce277     Ti275    9.999   1_456     S
N278     B279    9.99   1_556     S
N278     B286    9.997   .     S
N278     He280    9.996   1_556     S
B279     N278    9.99   1_554     S
B279     N285    9.997   .     S
B279     Li281    10.0   .     S
He280     Be265    10.0   1_554     S
He280     N278    9.996   1_554     S
He280     Li281    9.999   .     S
Li281     V298    10.016   .     S
Ti282     S283    9.99   1_556     S
Ti282     Ce284    9.999   1_556     S
S283     Ti282    9.99   1_554     S
S283     Ce284    9.994   .     S
S283     N285    9.996   .     S
Ce284     Ti282    9.999   1_554     S
N285     B286    9.99   1_554     S
N285     He287    9.996   1_554     S
B286     N285    9.99   1_556     S
B286     Li288    10.0   .     S
He287     Be267    10.0   1_556     S
He287     N285    9.996   1_556     S
He287     Li288    9.999   .     S
Be289     C290    9.994   .     S
Be289     He304    10.0   .     S
Be289     Ti323    10.003   .     S
Be289     C292    10.01   .     S
C290     Li305    10.009   .     S
C290     Be291    10.01   .     S
C290     Er321    10.012   .     S
Be291     C292    9.994   .     S
Be291     He311    10.0   .     S
Be291     Ti330    10.003   .     S
C292     Li312    10.009   .     S
C292     Er318    10.012   .     S
H293     Er294    9.991   .     S
H293     V295    9.993   .     S
H293     B310    9.999   .     S
Er294     V295    10.008   .     S
Er294     C314    10.012   1_655     S
H296     Er297    9.991   .     S
H296     V298    9.993   .     S
H296     B303    9.999   .     S
Er297     V298    10.008   .     S
Er297     C316    10.012   1_655     S
Ti299     S300    9.99   .     S
Ti299     Ce301    9.999   .     S
Ti299     Be313    10.003   1_655     S
S300     Ce301    9.994   .     S
S300     N302    9.996   .     S
Ce301     He383    10.004   .     S
N302     B303    9.99   .     S
N302     B310    9.997   .     S
N302     He304    9.996   .     S
B303     N309    9.997   .     S
B303     Li305    10.0   .     S
He304     Li305    9.999   .     S
He304     Ce380    10.004   .     S
Ti306     S307    9.99   .     S
Ti306     Ce308    9.999   .     S
Ti306     Be315    10.003   1_655     S
S307     Ce308    9.994   .     S
S307     N309    9.996   .     S
Ce308     He376    10.004   .     S
N309     B310    9.99   .     S
N309     He311    9.996   .     S
B310     Li312    10.0   .     S
He311     Li312    9.999   .     S
He311     Ce373    10.004   .     S
Be313     Ti299    10.003   1_455     S
Be313     C314    9.994   .     S
Be313     He328    10.0   .     S
Be313     C316    10.01   .     S
C314     Li329    10.009   .     S
C314     Be315    10.01   .     S
C314     Er294    10.012   1_455     S
Be315     Ti306    10.003   1_455     S
Be315     C316    9.994   .     S
Be315     He335    10.0   .     S
C316     Li336    10.009   .     S
C316     Er297    10.012   1_455     S
H317     Er318    9.991   .     S
H317     V319    9.993   .     S
H317     B327    9.999   .     S
Er318     V319    10.008   .     S
H320     Er321    9.991   .     S
H320     V322    9.993   .     S
H320     B334    9.999   .     S
Er321     V322    10.008   .     S
Ti323     S324    9.99   .     S
Ti323     Ce325    9.999   .     S
S324     Ce325    9.994   .     S
S324     N326    9.996   .     S
Ce325     He352    10.004   .     S
N326     B327    9.99   .     S
N326     B334    9.997   .     S
N326     He328    9.996   .     S
B327     N333    9.997   .     S
B327     Li329    10.0   .     S
He328     Li329    9.999   .     S
He328     Ce349    10.004   .     S
Ti330     S331    9.99   .     S
Ti330     Ce332    9.999   .     S
S331     Ce332    9.994   .     S
S331     N333    9.996   .     S
Ce332     He359    10.004   .     S
N333     B334    9.99   .     S
N333     He335    9.996   .     S
B334     Li336    10.0   .     S
He335     Li336    9.999   .     S
He335     Ce356    10.004   .     S
Be337     C338    9.994   .     S
Be337     He359    10.0   .     S
Be337     Ti371    10.003   .     S
Be337     C340    10.01   1_565     S
C338     Li360    10.009   .     S
C338     Be339    10.01   1_565     S
C338     Er366    10.012   .     S
Be339     C340    9.994   .     S
Be339     He352    10.0   .     S
Be339     Ti378    10.003   .     S
Be339     C338    10.01   1_545     S
C340     Li353    10.009   .     S
C340     Be337    10.01   1_545     S
C340     Er369    10.012   .     S
H341     Er342    9.991   .     S
H341     V343    9.993   .     S
H341     B351    9.999   1_565     S
Er342     V343    10.008   .     S
Er342     C362    10.012   1_455     S
H344     Er345    9.991   .     S
H344     V346    9.993   .     S
H344     B358    9.999   1_545     S
Er345     V346    10.008   .     S
Er345     C364    10.012   1_455     S
Ti347     S348    9.99   .     S
Ti347     Ce349    9.999   .     S
Ti347     Be363    10.003   1_455     S
S348     Ce349    9.994   .     S
S348     N350    9.996   .     S
N350     B351    9.99   .     S
N350     B358    9.997   1_545     S
N350     He352    9.996   .     S
B351     H341    9.999   1_545     S
B351     N357    9.997   1_545     S
B351     Li353    10.0   .     S
He352     Li353    9.999   .     S
Ti354     S355    9.99   .     S
Ti354     Ce356    9.999   .     S
Ti354     Be361    10.003   1_455     S
S355     Ce356    9.994   .     S
S355     N357    9.996   .     S
N357     B358    9.99   .     S
N357     B351    9.997   1_565     S
N357     He359    9.996   .     S
B358     H344    9.999   1_565     S
B358     N350    9.997   1_565     S
B358     Li360    10.0   .     S
He359     Li360    9.999   .     S
Be361     Ti354    10.003   1_655     S
Be361     C362    9.994   .     S
Be361     He376    10.0   .     S
Be361     C364    10.01   1_565     S
C362     Li377    10.009   .     S
C362     Be363    10.01   1_565     S
C362     Er342    10.012   1_655     S
Be363     Ti347    10.003   1_655     S
Be363     C364    9.994   .     S
Be363     He383    10.0   .     S
Be363     C362    10.01   1_545     S
C364     Li384    10.009   .     S
C364     Be361    10.01   1_545     S
C364     Er345    10.012   1_655     S
H365     Er366    9.991   .     S
H365     V367    9.993   .     S
H365     B382    9.999   1_565     S
Er366     V367    10.008   .     S
H368     Er369    9.991   .     S
H368     V370    9.993   .     S
H368     B375    9.999   1_545     S
Er369     V370    10.008   .     S
Ti371     S372    9.99   .     S
Ti371     Ce373    9.999   .     S
S372     Ce373    9.994   .     S
S372     N374    9.996   .     S
N374     B375    9.99   .     S
N374     B382    9.997   1_565     S
N374     He376    9.996   .     S
B375     H368    9.999   1_565     S
B375     N381    9.997   1_565     S
B375     Li377    10.0   .     S
He376     Li377    9.999   .     S
Ti378     S379    9.99   .     S
Ti378     Ce380    9.999   .     S
S379     Ce380    9.994   .     S
S379     N381    9.996   .     S
N381     B382    9.99   .     S
N381     B375    9.997   1_545     S
N381     He383    9.996   .     S
B382     H365    9.999   1_545     S
B382     N374    9.997   1_545     S
B382     Li384    10.0   .     S
He383     Li384    9.999   .     S
