data_fnf
_audit_creation_date              2020-02-04
_audit_creation_method            'Pymatgen'
_symmetry_space_group_name_H-M    'P1'
_symmetry_Int_Tables_number       1
loop_
_symmetry_equiv_pos_as_xyz
  x,y,z
_cell_length_a                    51.3783
_cell_length_b                    51.3783
_cell_length_c                    51.3783
_cell_angle_alpha                 90.0
_cell_angle_beta                 90.0
_cell_angle_gamma                 90.0
loop_
_atom_site_label
_atom_site_type_symbol
_atom_site_fract_x
_atom_site_fract_y
_atom_site_fract_z
V1     V     0.9438   0.5814   0.8062
V2     V     0.8062   0.5814   0.9438
V3     V     0.9438   0.8062   0.5814
V4     V     0.8062   0.9438   0.5814
V5     V     0.5562   0.8314   0.5562
V6     V     0.6938   0.8314   0.6938
V7     V     0.6938   0.9186   0.0562
V8     V     0.5562   0.9186   0.1938
V9     V     0.5562   0.1938   0.9186
V10     V     0.6938   0.0562   0.9186
V11     V     0.8062   0.1686   0.8062
V12     V     0.9438   0.1686   0.9438
V13     V     0.0562   0.0562   0.8314
V14     V     0.1938   0.1938   0.8314
V15     V     0.4438   0.5814   0.3062
V16     V     0.3062   0.5814   0.4438
V17     V     0.0814   0.8062   0.4438
V18     V     0.0814   0.9438   0.3062
V19     V     0.5814   0.3062   0.4438
V20     V     0.5814   0.4438   0.3062
V21     V     0.5814   0.8062   0.9438
V22     V     0.5814   0.9438   0.8062
V23     V     0.1938   0.9186   0.5562
V24     V     0.0562   0.9186   0.6938
V25     V     0.1686   0.8062   0.8062
V26     V     0.1686   0.9438   0.9438
V27     V     0.3062   0.8062   0.6686
V28     V     0.4438   0.9438   0.6686
V29     V     0.1938   0.5562   0.9186
V30     V     0.0562   0.6938   0.9186
V31     V     0.8062   0.8062   0.1686
V32     V     0.9438   0.9438   0.1686
V33     V     0.9186   0.5562   0.1938
V34     V     0.9186   0.6938   0.0562
V35     V     0.8314   0.5562   0.5562
V36     V     0.8314   0.6938   0.6938
V37     V     0.5562   0.5562   0.8314
V38     V     0.6938   0.6938   0.8314
V39     V     0.8062   0.6686   0.3062
V40     V     0.9438   0.6686   0.4438
V41     V     0.8314   0.0562   0.0562
V42     V     0.8314   0.1938   0.1938
V43     V     0.4186   0.5562   0.6938
V44     V     0.4186   0.6938   0.5562
V45     V     0.0562   0.8314   0.0562
V46     V     0.1938   0.8314   0.1938
V47     V     0.0562   0.3314   0.5562
V48     V     0.1938   0.3314   0.6938
V49     V     0.5562   0.3314   0.0562
V50     V     0.6938   0.3314   0.1938
V51     V     0.8062   0.4438   0.0814
V52     V     0.9438   0.3062   0.0814
V53     V     0.4438   0.4438   0.1686
V54     V     0.3062   0.3062   0.1686
V55     V     0.1938   0.4186   0.0562
V56     V     0.0562   0.4186   0.1938
V57     V     0.0814   0.4438   0.8062
V58     V     0.0814   0.3062   0.9438
V59     V     0.3062   0.6686   0.8062
V60     V     0.4438   0.6686   0.9438
V61     V     0.3314   0.5562   0.0562
V62     V     0.3314   0.6938   0.1938
V63     V     0.4438   0.8062   0.0814
V64     V     0.3062   0.9438   0.0814
V65     V     0.4186   0.1938   0.0562
V66     V     0.4186   0.0562   0.1938
V67     V     0.4438   0.0814   0.8062
V68     V     0.3062   0.0814   0.9438
V69     V     0.3314   0.0562   0.5562
V70     V     0.3314   0.1938   0.6938
V71     V     0.1686   0.3062   0.3062
V72     V     0.1686   0.4438   0.4438
V73     V     0.0562   0.5562   0.3314
V74     V     0.1938   0.6938   0.3314
V75     V     0.9186   0.1938   0.5562
V76     V     0.9186   0.0562   0.6938
V77     V     0.8062   0.0814   0.4438
V78     V     0.9438   0.0814   0.3062
V79     V     0.5562   0.0562   0.3314
V80     V     0.6938   0.1938   0.3314
V81     V     0.4438   0.1686   0.4438
V82     V     0.3062   0.1686   0.3062
V83     V     0.0562   0.1938   0.4186
V84     V     0.1938   0.0562   0.4186
V85     V     0.6686   0.8062   0.3062
V86     V     0.6686   0.9438   0.4438
V87     V     0.5562   0.6938   0.4186
V88     V     0.6938   0.5562   0.4186
V89     V     0.3062   0.4438   0.5814
V90     V     0.4438   0.3062   0.5814
V91     V     0.6686   0.3062   0.8062
V92     V     0.6686   0.4438   0.9438
V93     V     0.5562   0.4186   0.6938
V94     V     0.6938   0.4186   0.5562
V95     V     0.8062   0.3062   0.6686
V96     V     0.9438   0.4438   0.6686
loop_
_geom_bond_atom_site_label_1
_geom_bond_atom_site_label_2
_geom_bond_distance
_geom_bond_site_symmetry_2
_ccdc_geom_bond_type
V1     V2    9.999   .     S
V1     V36    10.0   .     S
V1     V30    10.0   1_655     S
V1     V96    10.0   .     S
V1     V57    10.0   1_655     S
V2     V34    10.0   1_556     S
V2     V38    10.0   .     S
V2     V51    10.0   1_556     S
V2     V92    10.0   .     S
V3     V4    9.999   .     S
V3     V36    10.0   .     S
V3     V24    10.0   1_655     S
V3     V17    10.0   1_655     S
V3     V40    10.0   .     S
V4     V6    10.0   .     S
V4     V76    10.0   1_565     S
V4     V77    10.0   1_565     S
V4     V86    10.0   .     S
V5     V6    9.999   .     S
V5     V28    10.0   .     S
V5     V86    10.0   .     S
V5     V44    10.0   .     S
V5     V87    10.0   .     S
V6     V22    10.0   .     S
V6     V38    10.0   .     S
V6     V36    10.0   .     S
V7     V8    9.999   .     S
V7     V21    10.0   1_554     S
V7     V31    10.0   .     S
V7     V10    10.0   1_564     S
V7     V41    10.0   1_565     S
V8     V63    10.0   .     S
V8     V85    10.0   .     S
V8     V79    10.0   1_565     S
V8     V66    10.0   1_565     S
V9     V10    9.999   .     S
V9     V67    10.0   .     S
V9     V91    10.0   .     S
V9     V65    10.0   1_556     S
V9     V49    10.0   1_556     S
V10     V11    10.0   .     S
V10     V22    10.0   1_545     S
V10     V41    10.0   1_556     S
V10     V7    10.0   1_546     S
V11     V12    9.999   .     S
V11     V76    10.0   .     S
V11     V95    10.0   .     S
V11     V91    10.0   .     S
V12     V41    10.0   1_556     S
V12     V13    10.0   1_655     S
V12     V52    10.0   1_556     S
V12     V58    10.0   1_655     S
V13     V14    9.999   .     S
V13     V12    10.0   1_455     S
V13     V26    10.0   1_545     S
V13     V24    10.0   1_545     S
V13     V76    10.0   1_455     S
V14     V58    10.0   .     S
V14     V68    10.0   .     S
V14     V48    10.0   .     S
V14     V70    10.0   .     S
V15     V16    9.999   .     S
V15     V87    10.0   .     S
V15     V62    10.0   .     S
V15     V53    10.0   .     S
V15     V20    10.0   .     S
V16     V74    10.0   .     S
V16     V44    10.0   .     S
V16     V89    10.0   .     S
V16     V72    10.0   .     S
V17     V18    9.999   .     S
V17     V74    10.0   .     S
V17     V23    10.0   .     S
V17     V3    10.0   1_455     S
V17     V40    10.0   1_455     S
V18     V46    10.0   .     S
V18     V84    10.0   1_565     S
V18     V32    10.0   1_455     S
V18     V78    10.0   1_465     S
V19     V20    9.999   .     S
V19     V94    10.0   .     S
V19     V80    10.0   .     S
V19     V90    10.0   .     S
V19     V81    10.0   .     S
V20     V50    10.0   .     S
V20     V88    10.0   .     S
V20     V53    10.0   .     S
V21     V22    9.999   .     S
V21     V7    10.0   1_556     S
V21     V38    10.0   .     S
V21     V60    10.0   .     S
V21     V63    10.0   1_556     S
V22     V10    10.0   1_565     S
V22     V28    10.0   .     S
V22     V67    10.0   1_565     S
V23     V24    9.999   .     S
V23     V27    10.0   .     S
V23     V84    10.0   1_565     S
V23     V69    10.0   1_565     S
V24     V3    10.0   1_455     S
V24     V25    10.0   .     S
V24     V13    10.0   1_565     S
V24     V76    10.0   1_465     S
V25     V26    9.999   .     S
V25     V30    10.0   .     S
V25     V59    10.0   .     S
V25     V27    10.0   .     S
V26     V13    10.0   1_565     S
V26     V45    10.0   1_556     S
V26     V64    10.0   1_556     S
V26     V68    10.0   1_565     S
V27     V28    9.999   .     S
V27     V44    10.0   .     S
V27     V59    10.0   .     S
V28     V69    10.0   1_565     S
V28     V67    10.0   1_565     S
V29     V30    9.999   .     S
V29     V57    10.0   .     S
V29     V59    10.0   .     S
V29     V61    10.0   1_556     S
V29     V55    10.0   1_556     S
V30     V1    10.0   1_455     S
V30     V34    10.0   1_456     S
V30     V45    10.0   1_556     S
V31     V32    9.999   .     S
V31     V34    10.0   .     S
V31     V85    10.0   .     S
V31     V39    10.0   .     S
V32     V45    10.0   1_655     S
V32     V41    10.0   1_565     S
V32     V18    10.0   1_655     S
V32     V78    10.0   1_565     S
V33     V34    9.999   .     S
V33     V51    10.0   .     S
V33     V39    10.0   .     S
V33     V56    10.0   1_655     S
V33     V73    10.0   1_655     S
V34     V2    10.0   1_554     S
V34     V45    10.0   1_655     S
V34     V30    10.0   1_654     S
V35     V36    9.999   .     S
V35     V40    10.0   .     S
V35     V96    10.0   .     S
V35     V88    10.0   .     S
V35     V94    10.0   .     S
V36     V38    10.0   .     S
V37     V38    9.999   .     S
V37     V60    10.0   .     S
V37     V92    10.0   .     S
V37     V43    10.0   .     S
V37     V93    10.0   .     S
V39     V40    9.999   .     S
V39     V88    10.0   .     S
V39     V85    10.0   .     S
V40     V73    10.0   1_655     S
V40     V17    10.0   1_655     S
V41     V12    10.0   1_554     S
V41     V32    10.0   1_545     S
V41     V42    9.999   .     S
V41     V10    10.0   1_554     S
V41     V7    10.0   1_545     S
V42     V78    10.0   .     S
V42     V52    10.0   .     S
V42     V80    10.0   .     S
V42     V50    10.0   .     S
V43     V44    9.999   .     S
V43     V59    10.0   .     S
V43     V89    10.0   .     S
V43     V93    10.0   .     S
V44     V87    10.0   .     S
V45     V26    10.0   1_554     S
V45     V32    10.0   1_455     S
V45     V46    9.999   .     S
V45     V34    10.0   1_455     S
V45     V30    10.0   1_554     S
V46     V64    10.0   .     S
V46     V74    10.0   .     S
V46     V62    10.0   .     S
V47     V48    9.999   .     S
V47     V72    10.0   .     S
V47     V96    10.0   1_455     S
V47     V75    10.0   1_455     S
V47     V83    10.0   .     S
V48     V89    10.0   .     S
V48     V57    10.0   .     S
V48     V70    10.0   .     S
V49     V50    9.999   .     S
V49     V53    10.0   .     S
V49     V92    10.0   1_554     S
V49     V9    10.0   1_554     S
V49     V65    10.0   .     S
V50     V51    10.0   .     S
V50     V80    10.0   .     S
V51     V52    9.999   .     S
V51     V92    10.0   1_554     S
V51     V2    10.0   1_554     S
V52     V56    10.0   1_655     S
V52     V58    10.0   1_654     S
V52     V12    10.0   1_554     S
V53     V54    9.999   .     S
V53     V61    10.0   .     S
V54     V55    10.0   .     S
V54     V65    10.0   .     S
V54     V71    10.0   .     S
V54     V82    10.0   .     S
V55     V56    9.999   .     S
V55     V58    10.0   1_554     S
V55     V29    10.0   1_554     S
V55     V61    10.0   .     S
V56     V52    10.0   1_455     S
V56     V71    10.0   .     S
V56     V33    10.0   1_455     S
V56     V73    10.0   .     S
V57     V58    9.999   .     S
V57     V96    10.0   1_455     S
V57     V1    10.0   1_455     S
V58     V55    10.0   1_556     S
V58     V52    10.0   1_456     S
V58     V12    10.0   1_455     S
V59     V60    9.999   .     S
V60     V61    10.0   1_556     S
V60     V63    10.0   1_556     S
V61     V62    9.999   .     S
V61     V60    10.0   1_554     S
V61     V29    10.0   1_554     S
V62     V63    10.0   .     S
V62     V74    10.0   .     S
V63     V64    9.999   .     S
V63     V60    10.0   1_554     S
V63     V21    10.0   1_554     S
V64     V66    10.0   1_565     S
V64     V26    10.0   1_554     S
V64     V68    10.0   1_564     S
V65     V66    9.999   .     S
V65     V68    10.0   1_554     S
V65     V9    10.0   1_554     S
V66     V82    10.0   .     S
V66     V64    10.0   1_545     S
V66     V8    10.0   1_545     S
V66     V79    10.0   .     S
V67     V68    9.999   .     S
V67     V70    10.0   .     S
V67     V22    10.0   1_545     S
V67     V28    10.0   1_545     S
V68     V65    10.0   1_556     S
V68     V26    10.0   1_545     S
V68     V64    10.0   1_546     S
V69     V28    10.0   1_545     S
V69     V70    9.999   .     S
V69     V81    10.0   .     S
V69     V23    10.0   1_545     S
V69     V84    10.0   .     S
V70     V90    10.0   .     S
V71     V72    9.999   .     S
V71     V83    10.0   .     S
V71     V82    10.0   .     S
V72     V73    10.0   .     S
V72     V89    10.0   .     S
V73     V40    10.0   1_455     S
V73     V74    9.999   .     S
V73     V33    10.0   1_455     S
V75     V76    9.999   .     S
V75     V77    10.0   .     S
V75     V95    10.0   .     S
V75     V47    10.0   1_655     S
V75     V83    10.0   1_655     S
V76     V4    10.0   1_545     S
V76     V24    10.0   1_645     S
V76     V13    10.0   1_655     S
V77     V78    9.999   .     S
V77     V80    10.0   .     S
V77     V86    10.0   1_545     S
V77     V4    10.0   1_545     S
V78     V83    10.0   1_655     S
V78     V32    10.0   1_545     S
V78     V18    10.0   1_645     S
V79     V80    9.999   .     S
V79     V81    10.0   .     S
V79     V86    10.0   1_545     S
V79     V8    10.0   1_545     S
V81     V82    9.999   .     S
V81     V90    10.0   .     S
V82     V84    10.0   .     S
V83     V84    9.999   .     S
V83     V78    10.0   1_455     S
V83     V75    10.0   1_455     S
V84     V18    10.0   1_545     S
V84     V23    10.0   1_545     S
V85     V86    9.999   .     S
V85     V87    10.0   .     S
V86     V79    10.0   1_565     S
V86     V77    10.0   1_565     S
V87     V88    9.999   .     S
V88     V94    10.0   .     S
V89     V90    9.999   .     S
V90     V93    10.0   .     S
V91     V92    9.999   .     S
V91     V93    10.0   .     S
V91     V95    10.0   .     S
V92     V49    10.0   1_556     S
V92     V51    10.0   1_556     S
V93     V94    9.999   .     S
V94     V95    10.0   .     S
V95     V96    9.999   .     S
V96     V47    10.0   1_655     S
V96     V57    10.0   1_655     S
