data_ftf
_audit_creation_date              2020-02-04
_audit_creation_method            'Pymatgen'
_symmetry_space_group_name_H-M    'P1'
_symmetry_Int_Tables_number       1
loop_
_symmetry_equiv_pos_as_xyz
  x,y,z
_cell_length_a                    60.4525
_cell_length_b                    60.4525
_cell_length_c                    28.2267
_cell_angle_alpha                 90.0
_cell_angle_beta                 90.0
_cell_angle_gamma                 120.0
loop_
_atom_site_label
_atom_site_type_symbol
_atom_site_fract_x
_atom_site_fract_y
_atom_site_fract_z
V1     V     0.6667   0.1826   0.5729
V2     V     0.8174   0.3333   0.4271
Er3     Er     0.7537   0.0955   0.4271
Er4     Er     0.9045   0.2463   0.5729
Er5     Er     0.3418   0.0955   0.5729
Er6     Er     0.3418   0.2463   0.4271
V7     V     0.5159   0.1826   0.4271
V8     V     0.5159   0.3333   0.5729
V9     V     0.6667   0.4841   0.4271
Er10     Er     0.7537   0.6582   0.5729
Er11     Er     0.9045   0.6582   0.4271
V12     V     0.8174   0.4841   0.5729
V13     V     0.6667   0.1826   0.9271
V14     V     0.8174   0.3333   0.0729
Er15     Er     0.7537   0.0955   0.0729
Er16     Er     0.9045   0.2463   0.9271
Er17     Er     0.3418   0.2463   0.0729
Er18     Er     0.3418   0.0955   0.9271
V19     V     0.5159   0.1826   0.0729
V20     V     0.5159   0.3333   0.9271
V21     V     0.6667   0.4841   0.0729
Er22     Er     0.7537   0.6582   0.9271
Er23     Er     0.9045   0.6582   0.0729
V24     V     0.8174   0.4841   0.9271
Er25     Er     0.0955   0.3418   0.9271
Er26     Er     0.2463   0.3418   0.0729
V27     V     0.1826   0.5159   0.0729
V28     V     0.3333   0.5159   0.9271
Er29     Er     0.0955   0.7537   0.0729
Er30     Er     0.2463   0.9045   0.9271
V31     V     0.3333   0.8174   0.0729
V32     V     0.1826   0.6667   0.9271
V33     V     0.4841   0.8174   0.9271
Er34     Er     0.6582   0.9045   0.0729
Er35     Er     0.6582   0.7537   0.9271
V36     V     0.4841   0.6667   0.0729
Er37     Er     0.6582   0.7537   0.5729
Er38     Er     0.6582   0.9045   0.4271
V39     V     0.4841   0.6667   0.4271
V40     V     0.4841   0.8174   0.5729
V41     V     0.1826   0.6667   0.5729
V42     V     0.3333   0.8174   0.4271
Er43     Er     0.2463   0.9045   0.5729
Er44     Er     0.0955   0.7537   0.4271
Er45     Er     0.0955   0.3418   0.5729
Er46     Er     0.2463   0.3418   0.4271
V47     V     0.3333   0.5159   0.5729
V48     V     0.1826   0.5159   0.4271
loop_
_geom_bond_atom_site_label_1
_geom_bond_atom_site_label_2
_geom_bond_distance
_geom_bond_site_symmetry_2
_ccdc_geom_bond_type
V1     V2    10.0   .     S
V1     Er3    10.0   .     S
V1     V7    10.0   .     S
V1     V13    10.0   .     S
V2     Er4    10.0   .     S
V2     V12    10.0   .     S
V2     V14    10.0   .     S
Er3     Er4    10.0   .     S
Er3     Er15    10.0   .     S
Er3     Er38    10.001   1_545     S
Er4     Er16    10.0   .     S
Er4     Er45    10.001   1_655     S
Er5     Er6    10.0   .     S
Er5     V7    10.0   .     S
Er5     Er18    10.0   .     S
Er5     Er43    10.001   1_545     S
Er6     V8    10.0   .     S
Er6     Er17    10.0   .     S
Er6     Er46    10.001   .     S
V7     V8    10.0   .     S
V7     V19    10.0   .     S
V8     V9    10.0   .     S
V8     V20    10.0   .     S
V9     V12    10.0   .     S
V9     Er10    10.0   .     S
V9     V21    10.0   .     S
Er10     Er11    10.0   .     S
Er10     Er22    10.0   .     S
Er10     Er37    10.001   .     S
Er11     V12    10.0   .     S
Er11     Er23    10.0   .     S
Er11     Er44    10.001   1_655     S
V12     V24    10.0   .     S
V13     V14    10.0   1_556     S
V13     Er15    10.0   1_556     S
V13     V19    10.0   1_556     S
V14     V13    10.0   1_554     S
V14     Er16    10.0   1_554     S
V14     V24    10.0   1_554     S
Er15     Er16    10.0   1_554     S
Er15     V13    10.0   1_554     S
Er15     Er34    10.001   1_545     S
Er16     Er15    10.0   1_556     S
Er16     V14    10.0   1_556     S
Er16     Er25    10.001   1_655     S
Er17     Er18    10.0   1_554     S
Er17     V20    10.0   1_554     S
Er17     Er26    10.001   .     S
Er18     Er17    10.0   1_556     S
Er18     V19    10.0   1_556     S
Er18     Er30    10.001   1_545     S
V19     V13    10.0   1_554     S
V19     V20    10.0   1_554     S
V19     Er18    10.0   1_554     S
V20     V19    10.0   1_556     S
V20     Er17    10.0   1_556     S
V20     V21    10.0   1_556     S
V21     V24    10.0   1_554     S
V21     Er22    10.0   1_554     S
V21     V20    10.0   1_554     S
Er22     V21    10.0   1_556     S
Er22     Er23    10.0   1_556     S
Er22     Er35    10.001   .     S
Er23     Er22    10.0   1_554     S
Er23     V24    10.0   1_554     S
Er23     Er29    10.001   1_655     S
V24     V14    10.0   1_556     S
V24     V21    10.0   1_556     S
V24     Er23    10.0   1_556     S
Er25     Er26    10.0   1_556     S
Er25     V27    10.0   1_556     S
Er25     Er45    10.0   .     S
Er25     Er16    10.001   1_455     S
Er26     Er25    10.0   1_554     S
Er26     V28    10.0   1_554     S
Er26     Er46    10.0   .     S
V27     V28    10.0   1_554     S
V27     Er25    10.0   1_554     S
V27     V32    10.0   1_554     S
V27     V48    10.0   .     S
V28     V27    10.0   1_556     S
V28     Er26    10.0   1_556     S
V28     V36    10.0   1_556     S
V28     V47    10.0   .     S
Er29     Er30    10.0   1_554     S
Er29     V32    10.0   1_554     S
Er29     Er44    10.0   .     S
Er29     Er23    10.001   1_455     S
Er30     Er29    10.0   1_556     S
Er30     V31    10.0   1_556     S
Er30     Er43    10.0   .     S
Er30     Er18    10.001   1_565     S
V31     V32    10.0   1_554     S
V31     Er30    10.0   1_554     S
V31     V33    10.0   1_554     S
V31     V42    10.0   .     S
V32     V31    10.0   1_556     S
V32     Er29    10.0   1_556     S
V32     V27    10.0   1_556     S
V32     V41    10.0   .     S
V33     V31    10.0   1_556     S
V33     V36    10.0   1_556     S
V33     Er34    10.0   1_556     S
V33     V40    10.0   .     S
Er34     Er35    10.0   1_554     S
Er34     V33    10.0   1_554     S
Er34     Er38    10.0   .     S
Er34     Er15    10.001   1_565     S
Er35     Er34    10.0   1_556     S
Er35     V36    10.0   1_556     S
Er35     Er37    10.0   .     S
V36     V33    10.0   1_554     S
V36     Er35    10.0   1_554     S
V36     V28    10.0   1_554     S
V36     V39    10.0   .     S
Er37     Er38    10.0   .     S
Er37     V39    10.0   .     S
Er38     V40    10.0   .     S
Er38     Er3    10.001   1_565     S
V39     V40    10.0   .     S
V39     V47    10.0   .     S
V40     V42    10.0   .     S
V41     V42    10.0   .     S
V41     Er44    10.0   .     S
V41     V48    10.0   .     S
V42     Er43    10.0   .     S
Er43     Er44    10.0   .     S
Er43     Er5    10.001   1_565     S
Er44     Er11    10.001   1_455     S
Er45     Er46    10.0   .     S
Er45     V48    10.0   .     S
Er45     Er4    10.001   1_455     S
Er46     V47    10.0   .     S
V47     V48    10.0   .     S
