data_ftr
_audit_creation_date              2020-02-04
_audit_creation_method            'Pymatgen'
_symmetry_space_group_name_H-M    'P1'
_symmetry_Int_Tables_number       1
loop_
_symmetry_equiv_pos_as_xyz
  x,y,z
_cell_length_a                    65.6047
_cell_length_b                    65.6047
_cell_length_c                    65.6047
_cell_angle_alpha                 90.0
_cell_angle_beta                 90.0
_cell_angle_gamma                 90.0
loop_
_atom_site_label
_atom_site_type_symbol
_atom_site_fract_x
_atom_site_fract_y
_atom_site_fract_z
V1     V     0.5   0.184   0.0762
V2     V     0.5   0.184   0.9238
Er3     Er     0.5762   0.316   0.0762
Er4     Er     0.4238   0.316   0.0762
Er5     Er     0.5762   0.316   0.9238
Er6     Er     0.4238   0.316   0.9238
Er7     Er     0.4238   0.9238   0.316
Er8     Er     0.4238   0.0762   0.316
Er9     Er     0.5762   0.9238   0.316
Er10     Er     0.5762   0.0762   0.316
V11     V     0.5   0.0762   0.184
V12     V     0.5   0.9238   0.184
V13     V     0.184   0.5   0.0762
V14     V     0.184   0.5   0.9238
Er15     Er     0.316   0.4238   0.9238
Er16     Er     0.316   0.5762   0.9238
Er17     Er     0.316   0.4238   0.0762
Er18     Er     0.316   0.5762   0.0762
Er19     Er     0.9238   0.5762   0.316
Er20     Er     0.0762   0.5762   0.316
Er21     Er     0.9238   0.4238   0.316
Er22     Er     0.0762   0.4238   0.316
V23     V     0.0762   0.5   0.184
V24     V     0.9238   0.5   0.184
Er25     Er     0.684   0.4238   0.0762
Er26     Er     0.684   0.4238   0.9238
Er27     Er     0.684   0.5762   0.9238
Er28     Er     0.684   0.5762   0.0762
V29     V     0.816   0.5   0.0762
V30     V     0.816   0.5   0.9238
V31     V     0.5   0.816   0.0762
V32     V     0.5   0.816   0.9238
Er33     Er     0.4238   0.684   0.0762
Er34     Er     0.4238   0.684   0.9238
Er35     Er     0.5762   0.684   0.9238
Er36     Er     0.5762   0.684   0.0762
Er37     Er     0.9238   0.4238   0.684
Er38     Er     0.0762   0.4238   0.684
Er39     Er     0.9238   0.5762   0.684
Er40     Er     0.0762   0.5762   0.684
V41     V     0.0762   0.5   0.816
V42     V     0.9238   0.5   0.816
V43     V     0.0762   0.816   0.5
V44     V     0.9238   0.816   0.5
Er45     Er     0.0762   0.684   0.5762
Er46     Er     0.0762   0.684   0.4238
Er47     Er     0.9238   0.684   0.5762
Er48     Er     0.9238   0.684   0.4238
Er49     Er     0.4238   0.0762   0.684
Er50     Er     0.4238   0.9238   0.684
Er51     Er     0.5762   0.9238   0.684
Er52     Er     0.5762   0.0762   0.684
V53     V     0.5   0.0762   0.816
V54     V     0.5   0.9238   0.816
V55     V     0.816   0.0762   0.5
V56     V     0.816   0.9238   0.5
Er57     Er     0.684   0.9238   0.4238
Er58     Er     0.684   0.9238   0.5762
Er59     Er     0.684   0.0762   0.4238
Er60     Er     0.684   0.0762   0.5762
V61     V     0.184   0.0762   0.5
V62     V     0.184   0.9238   0.5
Er63     Er     0.316   0.0762   0.5762
Er64     Er     0.316   0.0762   0.4238
Er65     Er     0.316   0.9238   0.5762
Er66     Er     0.316   0.9238   0.4238
V67     V     0.0762   0.184   0.5
V68     V     0.9238   0.184   0.5
Er69     Er     0.9238   0.316   0.4238
Er70     Er     0.9238   0.316   0.5762
Er71     Er     0.0762   0.316   0.4238
Er72     Er     0.0762   0.316   0.5762
loop_
_geom_bond_atom_site_label_1
_geom_bond_atom_site_label_2
_geom_bond_distance
_geom_bond_site_symmetry_2
_ccdc_geom_bond_type
V1     V2    9.999   1_554     S
V1     Er3    9.999   .     S
V1     Er4    9.999   .     S
V1     V11    10.001   .     S
V2     V1    9.999   1_556     S
V2     Er5    9.999   .     S
V2     Er6    9.999   .     S
V2     V53    10.001   .     S
Er3     Er5    9.999   1_554     S
Er3     Er4    9.999   .     S
Er3     Er25    10.001   .     S
Er4     Er6    9.999   1_554     S
Er4     Er17    10.001   .     S
Er5     Er3    9.999   1_556     S
Er5     Er6    9.999   .     S
Er5     Er26    10.001   .     S
Er6     Er4    9.999   1_556     S
Er6     Er15    10.001   .     S
Er7     V12    9.999   .     S
Er7     Er9    9.999   .     S
Er7     Er8    9.999   1_565     S
Er7     Er66    10.001   .     S
Er8     V11    9.999   .     S
Er8     Er10    9.999   .     S
Er8     Er7    9.999   1_545     S
Er8     Er64    10.001   .     S
Er9     V12    9.999   .     S
Er9     Er10    9.999   1_565     S
Er9     Er57    10.001   .     S
Er10     V11    9.999   .     S
Er10     Er9    9.999   1_545     S
Er10     Er59    10.001   .     S
V11     V12    9.999   1_545     S
V12     V11    9.999   1_565     S
V12     V31    10.001   .     S
V13     V14    9.999   1_554     S
V13     Er17    9.999   .     S
V13     Er18    9.999   .     S
V13     V23    10.001   .     S
V14     V13    9.999   1_556     S
V14     Er15    9.999   .     S
V14     Er16    9.999   .     S
V14     V41    10.001   .     S
Er15     Er16    9.999   .     S
Er15     Er17    9.999   1_556     S
Er16     Er18    9.999   1_556     S
Er16     Er34    10.001   .     S
Er17     Er18    9.999   .     S
Er17     Er15    9.999   1_554     S
Er18     Er16    9.999   1_554     S
Er18     Er33    10.001   .     S
Er19     V24    9.999   .     S
Er19     Er20    9.999   1_655     S
Er19     Er21    9.999   .     S
Er19     Er48    10.001   .     S
Er20     V23    9.999   .     S
Er20     Er19    9.999   1_455     S
Er20     Er22    9.999   .     S
Er20     Er46    10.001   .     S
Er21     V24    9.999   .     S
Er21     Er22    9.999   1_655     S
Er21     Er69    10.001   .     S
Er22     V23    9.999   .     S
Er22     Er21    9.999   1_455     S
Er22     Er71    10.001   .     S
V23     V24    9.999   1_455     S
V24     V23    9.999   1_655     S
V24     V29    10.001   .     S
Er25     V29    9.999   .     S
Er25     Er28    9.999   .     S
Er25     Er26    9.999   1_554     S
Er26     Er25    9.999   1_556     S
Er26     V30    9.999   .     S
Er26     Er27    9.999   .     S
Er27     V30    9.999   .     S
Er27     Er28    9.999   1_556     S
Er27     Er35    10.001   .     S
Er28     V29    9.999   .     S
Er28     Er27    9.999   1_554     S
Er28     Er36    10.001   .     S
V29     V30    9.999   1_554     S
V30     V29    9.999   1_556     S
V30     V42    10.001   .     S
V31     V32    9.999   1_554     S
V31     Er33    9.999   .     S
V31     Er36    9.999   .     S
V32     V31    9.999   1_556     S
V32     Er34    9.999   .     S
V32     Er35    9.999   .     S
V32     V54    10.001   .     S
Er33     Er36    9.999   .     S
Er33     Er34    9.999   1_554     S
Er34     Er33    9.999   1_556     S
Er34     Er35    9.999   .     S
Er35     Er36    9.999   1_556     S
Er36     Er35    9.999   1_554     S
Er37     V42    9.999   .     S
Er37     Er39    9.999   .     S
Er37     Er38    9.999   1_655     S
Er37     Er70    10.001   .     S
Er38     V41    9.999   .     S
Er38     Er40    9.999   .     S
Er38     Er37    9.999   1_455     S
Er38     Er72    10.001   .     S
Er39     V42    9.999   .     S
Er39     Er40    9.999   1_655     S
Er39     Er47    10.001   .     S
Er40     V41    9.999   .     S
Er40     Er39    9.999   1_455     S
Er40     Er45    10.001   .     S
V41     V42    9.999   1_455     S
V42     V41    9.999   1_655     S
V43     V44    9.999   1_455     S
V43     Er45    9.999   .     S
V43     Er46    9.999   .     S
V43     V62    10.001   .     S
V44     V43    9.999   1_655     S
V44     Er47    9.999   .     S
V44     Er48    9.999   .     S
V44     V56    10.001   .     S
Er45     Er47    9.999   1_455     S
Er45     Er46    9.999   .     S
Er46     Er48    9.999   1_455     S
Er47     Er45    9.999   1_655     S
Er47     Er48    9.999   .     S
Er48     Er46    9.999   1_655     S
Er49     V53    9.999   .     S
Er49     Er52    9.999   .     S
Er49     Er50    9.999   1_545     S
Er49     Er63    10.001   .     S
Er50     Er49    9.999   1_565     S
Er50     V54    9.999   .     S
Er50     Er51    9.999   .     S
Er50     Er65    10.001   .     S
Er51     V54    9.999   .     S
Er51     Er52    9.999   1_565     S
Er51     Er58    10.001   .     S
Er52     V53    9.999   .     S
Er52     Er51    9.999   1_545     S
Er52     Er60    10.001   .     S
V53     V54    9.999   1_545     S
V54     V53    9.999   1_565     S
V55     V56    9.999   1_545     S
V55     Er59    9.999   .     S
V55     Er60    9.999   .     S
V55     V68    10.001   .     S
V56     V55    9.999   1_565     S
V56     Er57    9.999   .     S
V56     Er58    9.999   .     S
Er57     Er58    9.999   .     S
Er57     Er59    9.999   1_565     S
Er58     Er60    9.999   1_565     S
Er59     Er60    9.999   .     S
Er59     Er57    9.999   1_545     S
Er60     Er58    9.999   1_545     S
V61     V62    9.999   1_545     S
V61     Er63    9.999   .     S
V61     Er64    9.999   .     S
V61     V67    10.001   .     S
V62     V61    9.999   1_565     S
V62     Er65    9.999   .     S
V62     Er66    9.999   .     S
Er63     Er65    9.999   1_545     S
Er63     Er64    9.999   .     S
Er64     Er66    9.999   1_545     S
Er65     Er63    9.999   1_565     S
Er65     Er66    9.999   .     S
Er66     Er64    9.999   1_565     S
V67     V68    9.999   1_455     S
V67     Er71    9.999   .     S
V67     Er72    9.999   .     S
V68     V67    9.999   1_655     S
V68     Er69    9.999   .     S
V68     Er70    9.999   .     S
Er69     Er70    9.999   .     S
Er69     Er71    9.999   1_655     S
Er70     Er72    9.999   1_655     S
Er71     Er72    9.999   .     S
Er71     Er69    9.999   1_455     S
Er72     Er70    9.999   1_455     S
