data_fts
_audit_creation_date              2020-02-04
_audit_creation_method            'Pymatgen'
_symmetry_space_group_name_H-M    'P1'
_symmetry_Int_Tables_number       1
loop_
_symmetry_equiv_pos_as_xyz
  x,y,z
_cell_length_a                    101.0635
_cell_length_b                    101.0635
_cell_length_c                    101.0635
_cell_angle_alpha                 90.0
_cell_angle_beta                 90.0
_cell_angle_gamma                 90.0
loop_
_atom_site_label
_atom_site_type_symbol
_atom_site_fract_x
_atom_site_fract_y
_atom_site_fract_z
V1     V     0.1894   0.6194   0.9505
V2     V     0.1894   0.6194   0.0495
Er3     Er     0.25   0.68   0.0
V4     V     0.3806   0.4505   0.6894
V5     V     0.3806   0.5495   0.6894
Er6     Er     0.32   0.5   0.75
V7     V     0.1894   0.5495   0.8806
V8     V     0.1894   0.4505   0.8806
Er9     Er     0.25   0.5   0.82
V10     V     0.1194   0.5495   0.8106
V11     V     0.1194   0.4505   0.8106
Er12     Er     0.18   0.5   0.75
V13     V     0.4505   0.6194   0.6894
V14     V     0.5495   0.6194   0.6894
Er15     Er     0.5   0.68   0.75
V16     V     0.6194   0.5495   0.6894
V17     V     0.6194   0.4505   0.6894
Er18     Er     0.68   0.5   0.75
V19     V     0.6194   0.1894   0.9505
V20     V     0.6194   0.1894   0.0495
Er21     Er     0.68   0.25   0.0
V22     V     0.5495   0.3806   0.6894
V23     V     0.4505   0.3806   0.6894
Er24     Er     0.5   0.32   0.75
V25     V     0.5495   0.1894   0.8806
V26     V     0.4505   0.1894   0.8806
Er27     Er     0.5   0.25   0.82
V28     V     0.4505   0.1194   0.8106
V29     V     0.5495   0.1194   0.8106
Er30     Er     0.5   0.18   0.75
V31     V     0.4505   0.6894   0.6194
V32     V     0.5495   0.6894   0.6194
Er33     Er     0.5   0.75   0.68
V34     V     0.6194   0.6894   0.5495
V35     V     0.6194   0.6894   0.4505
Er36     Er     0.68   0.75   0.5
V37     V     0.1894   0.9505   0.6194
V38     V     0.1894   0.0495   0.6194
Er39     Er     0.25   0.0   0.68
V40     V     0.3806   0.6894   0.5495
V41     V     0.3806   0.6894   0.4505
Er42     Er     0.32   0.75   0.5
V43     V     0.1894   0.8806   0.4505
V44     V     0.1894   0.8806   0.5495
Er45     Er     0.25   0.82   0.5
V46     V     0.1194   0.8106   0.4505
V47     V     0.1194   0.8106   0.5495
Er48     Er     0.18   0.75   0.5
V49     V     0.6194   0.9505   0.1894
V50     V     0.6194   0.0495   0.1894
Er51     Er     0.68   0.0   0.25
V52     V     0.4505   0.6894   0.3806
V53     V     0.5495   0.6894   0.3806
Er54     Er     0.5   0.75   0.32
V55     V     0.5495   0.8806   0.1894
V56     V     0.4505   0.8806   0.1894
Er57     Er     0.5   0.82   0.25
V58     V     0.5495   0.8106   0.1194
V59     V     0.4505   0.8106   0.1194
Er60     Er     0.5   0.75   0.18
V61     V     0.6194   0.8106   0.9505
V62     V     0.6194   0.8106   0.0495
Er63     Er     0.68   0.75   0.0
V64     V     0.6194   0.9505   0.8106
V65     V     0.6194   0.0495   0.8106
Er66     Er     0.68   0.0   0.75
V67     V     0.5495   0.8106   0.8806
V68     V     0.4505   0.8106   0.8806
Er69     Er     0.5   0.75   0.82
V70     V     0.5495   0.8806   0.8106
V71     V     0.4505   0.8806   0.8106
Er72     Er     0.5   0.82   0.75
V73     V     0.8106   0.9505   0.6194
V74     V     0.8106   0.0495   0.6194
Er75     Er     0.75   0.0   0.68
V76     V     0.9505   0.8106   0.6194
V77     V     0.0495   0.8106   0.6194
Er78     Er     0.0   0.75   0.68
V79     V     0.8106   0.8806   0.5495
V80     V     0.8106   0.8806   0.4505
Er81     Er     0.75   0.82   0.5
V82     V     0.8806   0.8106   0.5495
V83     V     0.8806   0.8106   0.4505
Er84     Er     0.82   0.75   0.5
V85     V     0.6894   0.5495   0.6194
V86     V     0.6894   0.4505   0.6194
Er87     Er     0.75   0.5   0.68
V88     V     0.9505   0.1894   0.6194
V89     V     0.0495   0.1894   0.6194
Er90     Er     0.0   0.25   0.68
V91     V     0.6894   0.3806   0.4505
V92     V     0.6894   0.3806   0.5495
Er93     Er     0.75   0.32   0.5
V94     V     0.8806   0.1894   0.5495
V95     V     0.8806   0.1894   0.4505
Er96     Er     0.82   0.25   0.5
V97     V     0.8106   0.1194   0.5495
V98     V     0.8106   0.1194   0.4505
Er99     Er     0.75   0.18   0.5
V100     V     0.6894   0.6194   0.5495
V101     V     0.6894   0.6194   0.4505
Er102     Er     0.75   0.68   0.5
V103     V     0.9505   0.6194   0.1894
V104     V     0.0495   0.6194   0.1894
Er105     Er     0.0   0.68   0.25
V106     V     0.6894   0.5495   0.3806
V107     V     0.6894   0.4505   0.3806
Er108     Er     0.75   0.5   0.32
V109     V     0.8806   0.5495   0.1894
V110     V     0.8806   0.4505   0.1894
Er111     Er     0.82   0.5   0.25
V112     V     0.8106   0.4505   0.1194
V113     V     0.8106   0.5495   0.1194
Er114     Er     0.75   0.5   0.18
V115     V     0.8106   0.6194   0.9505
V116     V     0.8106   0.6194   0.0495
Er117     Er     0.75   0.68   0.0
V118     V     0.9505   0.6194   0.8106
V119     V     0.0495   0.6194   0.8106
Er120     Er     0.0   0.68   0.75
V121     V     0.8106   0.4505   0.8806
V122     V     0.8106   0.5495   0.8806
Er123     Er     0.75   0.5   0.82
V124     V     0.8806   0.5495   0.8106
V125     V     0.8806   0.4505   0.8106
Er126     Er     0.82   0.5   0.75
V127     V     0.9505   0.6894   0.1194
V128     V     0.0495   0.6894   0.1194
Er129     Er     0.0   0.75   0.18
V130     V     0.1194   0.6894   0.9505
V131     V     0.1194   0.6894   0.0495
Er132     Er     0.18   0.75   0.0
V133     V     0.6894   0.1194   0.9505
V134     V     0.6894   0.1194   0.0495
Er135     Er     0.75   0.18   0.0
V136     V     0.9505   0.1194   0.6894
V137     V     0.0495   0.1194   0.6894
Er138     Er     0.0   0.18   0.75
V139     V     0.1194   0.9505   0.6894
V140     V     0.1194   0.0495   0.6894
Er141     Er     0.18   0.0   0.75
V142     V     0.6894   0.9505   0.8806
V143     V     0.6894   0.0495   0.8806
Er144     Er     0.75   0.0   0.82
V145     V     0.8806   0.9505   0.6894
V146     V     0.8806   0.0495   0.6894
Er147     Er     0.82   0.0   0.75
V148     V     0.9505   0.8806   0.6894
V149     V     0.0495   0.8806   0.6894
Er150     Er     0.0   0.82   0.75
V151     V     0.9505   0.6894   0.8806
V152     V     0.0495   0.6894   0.8806
Er153     Er     0.0   0.75   0.82
V154     V     0.8806   0.6894   0.9505
V155     V     0.8806   0.6894   0.0495
Er156     Er     0.82   0.75   0.0
V157     V     0.6894   0.8806   0.9505
V158     V     0.6894   0.8806   0.0495
Er159     Er     0.75   0.82   0.0
V160     V     0.6894   0.9505   0.1194
V161     V     0.6894   0.0495   0.1194
Er162     Er     0.75   0.0   0.18
V163     V     0.1894   0.3806   0.9505
V164     V     0.1894   0.3806   0.0495
Er165     Er     0.25   0.32   0.0
V166     V     0.3806   0.1894   0.9505
V167     V     0.3806   0.1894   0.0495
Er168     Er     0.32   0.25   0.0
V169     V     0.8106   0.3806   0.9505
V170     V     0.8106   0.3806   0.0495
Er171     Er     0.75   0.32   0.0
V172     V     0.9505   0.3806   0.8106
V173     V     0.0495   0.3806   0.8106
Er174     Er     0.0   0.32   0.75
V175     V     0.1194   0.3106   0.9505
V176     V     0.1194   0.3106   0.0495
Er177     Er     0.18   0.25   0.0
V178     V     0.9505   0.3106   0.8806
V179     V     0.0495   0.3106   0.8806
Er180     Er     0.0   0.25   0.82
V181     V     0.8806   0.3106   0.9505
V182     V     0.8806   0.3106   0.0495
Er183     Er     0.82   0.25   0.0
V184     V     0.9505   0.3106   0.1194
V185     V     0.0495   0.3106   0.1194
Er186     Er     0.0   0.25   0.18
V187     V     0.9505   0.3806   0.1894
V188     V     0.0495   0.3806   0.1894
Er189     Er     0.0   0.32   0.25
V190     V     0.9505   0.1894   0.3806
V191     V     0.0495   0.1894   0.3806
Er192     Er     0.0   0.25   0.32
V193     V     0.3806   0.8106   0.9505
V194     V     0.3806   0.8106   0.0495
Er195     Er     0.32   0.75   0.0
V196     V     0.3806   0.9505   0.8106
V197     V     0.3806   0.0495   0.8106
Er198     Er     0.32   0.0   0.75
V199     V     0.3106   0.1194   0.9505
V200     V     0.3106   0.1194   0.0495
Er201     Er     0.25   0.18   0.0
V202     V     0.3106   0.9505   0.8806
V203     V     0.3106   0.0495   0.8806
Er204     Er     0.25   0.0   0.82
V205     V     0.3106   0.8806   0.9505
V206     V     0.3106   0.8806   0.0495
Er207     Er     0.25   0.82   0.0
V208     V     0.3106   0.9505   0.1194
V209     V     0.3106   0.0495   0.1194
Er210     Er     0.25   0.0   0.18
V211     V     0.3806   0.9505   0.1894
V212     V     0.3806   0.0495   0.1894
Er213     Er     0.32   0.0   0.25
V214     V     0.1894   0.9505   0.3806
V215     V     0.1894   0.0495   0.3806
Er216     Er     0.25   0.0   0.32
V217     V     0.9505   0.8106   0.3806
V218     V     0.0495   0.8106   0.3806
Er219     Er     0.0   0.75   0.32
V220     V     0.8106   0.9505   0.3806
V221     V     0.8106   0.0495   0.3806
Er222     Er     0.75   0.0   0.32
V223     V     0.1194   0.9505   0.3106
V224     V     0.1194   0.0495   0.3106
Er225     Er     0.18   0.0   0.25
V226     V     0.9505   0.8806   0.3106
V227     V     0.0495   0.8806   0.3106
Er228     Er     0.0   0.82   0.25
V229     V     0.8806   0.9505   0.3106
V230     V     0.8806   0.0495   0.3106
Er231     Er     0.82   0.0   0.25
V232     V     0.9505   0.1194   0.3106
V233     V     0.0495   0.1194   0.3106
Er234     Er     0.0   0.18   0.25
V235     V     0.6194   0.4505   0.3106
V236     V     0.6194   0.5495   0.3106
Er237     Er     0.68   0.5   0.25
V238     V     0.5495   0.6194   0.3106
V239     V     0.4505   0.6194   0.3106
Er240     Er     0.5   0.68   0.25
V241     V     0.4505   0.3806   0.3106
V242     V     0.5495   0.3806   0.3106
Er243     Er     0.5   0.32   0.25
V244     V     0.4505   0.3106   0.3806
V245     V     0.5495   0.3106   0.3806
Er246     Er     0.5   0.25   0.32
V247     V     0.5495   0.1894   0.1194
V248     V     0.4505   0.1894   0.1194
Er249     Er     0.5   0.25   0.18
V250     V     0.4505   0.1194   0.1894
V251     V     0.5495   0.1194   0.1894
Er252     Er     0.5   0.18   0.25
V253     V     0.6194   0.3106   0.4505
V254     V     0.6194   0.3106   0.5495
Er255     Er     0.68   0.25   0.5
V256     V     0.5495   0.3106   0.6194
V257     V     0.4505   0.3106   0.6194
Er258     Er     0.5   0.25   0.68
V259     V     0.3106   0.4505   0.6194
V260     V     0.3106   0.5495   0.6194
Er261     Er     0.25   0.5   0.68
V262     V     0.3106   0.6194   0.5495
V263     V     0.3106   0.6194   0.4505
Er264     Er     0.25   0.68   0.5
V265     V     0.3806   0.3106   0.4505
V266     V     0.3806   0.3106   0.5495
Er267     Er     0.32   0.25   0.5
V268     V     0.3106   0.3806   0.5495
V269     V     0.3106   0.3806   0.4505
Er270     Er     0.25   0.32   0.5
V271     V     0.1894   0.1194   0.5495
V272     V     0.1894   0.1194   0.4505
Er273     Er     0.25   0.18   0.5
V274     V     0.1194   0.1894   0.4505
V275     V     0.1194   0.1894   0.5495
Er276     Er     0.18   0.25   0.5
V277     V     0.3806   0.5495   0.3106
V278     V     0.3806   0.4505   0.3106
Er279     Er     0.32   0.5   0.25
V280     V     0.3106   0.4505   0.3806
V281     V     0.3106   0.5495   0.3806
Er282     Er     0.25   0.5   0.32
V283     V     0.1894   0.4505   0.1194
V284     V     0.1894   0.5495   0.1194
Er285     Er     0.25   0.5   0.18
V286     V     0.1194   0.5495   0.1894
V287     V     0.1194   0.4505   0.1894
Er288     Er     0.18   0.5   0.25
loop_
_geom_bond_atom_site_label_1
_geom_bond_atom_site_label_2
_geom_bond_distance
_geom_bond_site_symmetry_2
_ccdc_geom_bond_type
V1     Er3    9.999   1_556     S
V1     V2    9.999   1_556     S
V1     V130    10.0   .     S
V1     V7    10.0   .     S
V2     Er3    9.999   .     S
V2     V1    9.999   1_554     S
V2     V131    10.0   .     S
V2     V284    10.0   .     S
Er3     V1    9.999   1_554     S
Er3     Er132    10.0   .     S
Er3     Er195    10.0   .     S
V4     Er6    9.999   .     S
V4     V5    9.999   .     S
V4     V23    10.0   .     S
V4     V259    10.0   .     S
V5     Er6    9.999   .     S
V5     V13    10.0   .     S
V5     V260    10.0   .     S
Er6     Er9    10.0   .     S
Er6     Er261    10.0   .     S
V7     Er9    9.999   .     S
V7     V8    9.999   .     S
V7     V10    10.0   .     S
V8     Er9    9.999   .     S
V8     V11    10.0   .     S
V8     V163    10.0   .     S
Er9     Er12    10.0   .     S
V10     Er12    9.999   .     S
V10     V11    9.999   .     S
V10     V119    10.0   .     S
V11     Er12    9.999   .     S
V11     V173    10.0   .     S
Er12     Er261    10.0   .     S
V13     Er15    9.999   .     S
V13     V14    9.999   .     S
V13     V31    10.0   .     S
V14     Er15    9.999   .     S
V14     V16    10.0   .     S
V14     V32    10.0   .     S
Er15     Er69    10.0   .     S
Er15     Er33    10.0   .     S
V16     Er18    9.999   .     S
V16     V17    9.999   .     S
V16     V85    10.0   .     S
V17     Er18    9.999   .     S
V17     V22    10.0   .     S
V17     V86    10.0   .     S
Er18     Er123    10.0   .     S
Er18     Er87    10.0   .     S
V19     Er21    9.999   1_556     S
V19     V20    9.999   1_556     S
V19     V133    10.0   .     S
V19     V25    10.0   .     S
V20     Er21    9.999   .     S
V20     V19    9.999   1_554     S
V20     V134    10.0   .     S
V20     V247    10.0   .     S
Er21     V19    9.999   1_554     S
Er21     Er135    10.0   .     S
Er21     Er171    10.0   .     S
V22     Er24    9.999   .     S
V22     V23    9.999   .     S
V22     V256    10.0   .     S
V23     Er24    9.999   .     S
V23     V257    10.0   .     S
Er24     Er27    10.0   .     S
Er24     Er258    10.0   .     S
V25     Er27    9.999   .     S
V25     V26    9.999   .     S
V25     V29    10.0   .     S
V26     Er27    9.999   .     S
V26     V166    10.0   .     S
V26     V28    10.0   .     S
Er27     Er30    10.0   .     S
V28     Er30    9.999   .     S
V28     V29    9.999   .     S
V28     V197    10.0   .     S
V29     Er30    9.999   .     S
V29     V65    10.0   .     S
Er30     Er258    10.0   .     S
V31     Er33    9.999   .     S
V31     V32    9.999   .     S
V31     V40    10.0   .     S
V32     Er33    9.999   .     S
V32     V34    10.0   .     S
Er33     Er72    10.0   .     S
V34     Er36    9.999   .     S
V34     V35    9.999   .     S
V34     V100    10.0   .     S
V35     Er36    9.999   .     S
V35     V53    10.0   .     S
V35     V101    10.0   .     S
Er36     Er81    10.0   .     S
Er36     Er102    10.0   .     S
V37     Er39    9.999   1_565     S
V37     V38    9.999   1_565     S
V37     V139    10.0   .     S
V37     V44    10.0   .     S
V38     Er39    9.999   .     S
V38     V37    9.999   1_545     S
V38     V140    10.0   .     S
V38     V271    10.0   .     S
Er39     V37    9.999   1_545     S
Er39     Er141    10.0   .     S
Er39     Er198    10.0   .     S
V40     Er42    9.999   .     S
V40     V41    9.999   .     S
V40     V262    10.0   .     S
V41     Er42    9.999   .     S
V41     V52    10.0   .     S
V41     V263    10.0   .     S
Er42     Er45    10.0   .     S
Er42     Er264    10.0   .     S
V43     Er45    9.999   .     S
V43     V44    9.999   .     S
V43     V46    10.0   .     S
V43     V214    10.0   .     S
V44     Er45    9.999   .     S
V44     V47    10.0   .     S
Er45     Er48    10.0   .     S
V46     Er48    9.999   .     S
V46     V47    9.999   .     S
V46     V218    10.0   .     S
V47     Er48    9.999   .     S
V47     V77    10.0   .     S
Er48     Er264    10.0   .     S
V49     Er51    9.999   1_565     S
V49     V50    9.999   1_565     S
V49     V160    10.0   .     S
V49     V55    10.0   .     S
V50     Er51    9.999   .     S
V50     V49    9.999   1_545     S
V50     V161    10.0   .     S
V50     V251    10.0   .     S
Er51     V49    9.999   1_545     S
Er51     Er162    10.0   .     S
Er51     Er222    10.0   .     S
V52     Er54    9.999   .     S
V52     V53    9.999   .     S
V52     V239    10.0   .     S
V53     Er54    9.999   .     S
V53     V238    10.0   .     S
Er54     Er57    10.0   .     S
Er54     Er240    10.0   .     S
V55     Er57    9.999   .     S
V55     V56    9.999   .     S
V55     V58    10.0   .     S
V56     Er57    9.999   .     S
V56     V211    10.0   .     S
V56     V59    10.0   .     S
Er57     Er60    10.0   .     S
V58     Er60    9.999   .     S
V58     V59    9.999   .     S
V58     V62    10.0   .     S
V59     Er60    9.999   .     S
V59     V194    10.0   .     S
Er60     Er240    10.0   .     S
V61     Er63    9.999   1_556     S
V61     V62    9.999   1_556     S
V61     V157    10.0   .     S
V61     V67    10.0   .     S
V62     Er63    9.999   .     S
V62     V61    9.999   1_554     S
V62     V158    10.0   .     S
Er63     V61    9.999   1_554     S
Er63     Er159    10.0   .     S
Er63     Er117    10.0   .     S
V64     Er66    9.999   1_565     S
V64     V65    9.999   1_565     S
V64     V142    10.0   .     S
V64     V70    10.0   .     S
V65     Er66    9.999   .     S
V65     V64    9.999   1_545     S
V65     V143    10.0   .     S
Er66     V64    9.999   1_545     S
Er66     Er144    10.0   .     S
Er66     Er75    10.0   .     S
V67     Er69    9.999   .     S
V67     V68    9.999   .     S
V67     V70    10.0   .     S
V68     Er69    9.999   .     S
V68     V71    10.0   .     S
V68     V193    10.0   .     S
Er69     Er72    10.0   .     S
V70     Er72    9.999   .     S
V70     V71    9.999   .     S
V71     Er72    9.999   .     S
V71     V196    10.0   .     S
V73     Er75    9.999   1_565     S
V73     V74    9.999   1_565     S
V73     V145    10.0   .     S
V73     V79    10.0   .     S
V74     Er75    9.999   .     S
V74     V73    9.999   1_545     S
V74     V146    10.0   .     S
V74     V97    10.0   .     S
Er75     V73    9.999   1_545     S
Er75     Er147    10.0   .     S
V76     Er78    9.999   1_655     S
V76     V77    9.999   1_655     S
V76     V148    10.0   .     S
V76     V82    10.0   .     S
V77     Er78    9.999   .     S
V77     V76    9.999   1_455     S
V77     V149    10.0   .     S
Er78     V76    9.999   1_455     S
Er78     Er150    10.0   .     S
Er78     Er120    10.0   .     S
V79     Er81    9.999   .     S
V79     V80    9.999   .     S
V79     V82    10.0   .     S
V80     Er81    9.999   .     S
V80     V83    10.0   .     S
V80     V220    10.0   .     S
Er81     Er84    10.0   .     S
V82     Er84    9.999   .     S
V82     V83    9.999   .     S
V83     Er84    9.999   .     S
V83     V217    10.0   .     S
Er84     Er102    10.0   .     S
V85     Er87    9.999   .     S
V85     V86    9.999   .     S
V85     V100    10.0   .     S
V86     Er87    9.999   .     S
V86     V92    10.0   .     S
Er87     Er126    10.0   .     S
V88     Er90    9.999   1_655     S
V88     V89    9.999   1_655     S
V88     V136    10.0   .     S
V88     V94    10.0   .     S
V89     Er90    9.999   .     S
V89     V88    9.999   1_455     S
V89     V137    10.0   .     S
V89     V275    10.0   .     S
Er90     V88    9.999   1_455     S
Er90     Er138    10.0   .     S
Er90     Er174    10.0   .     S
V91     Er93    9.999   .     S
V91     V92    9.999   .     S
V91     V107    10.0   .     S
V91     V253    10.0   .     S
V92     Er93    9.999   .     S
V92     V254    10.0   .     S
Er93     Er96    10.0   .     S
Er93     Er255    10.0   .     S
V94     Er96    9.999   .     S
V94     V95    9.999   .     S
V94     V97    10.0   .     S
V95     Er96    9.999   .     S
V95     V190    10.0   .     S
V95     V98    10.0   .     S
Er96     Er99    10.0   .     S
V97     Er99    9.999   .     S
V97     V98    9.999   .     S
V98     Er99    9.999   .     S
V98     V221    10.0   .     S
Er99     Er255    10.0   .     S
V100     Er102    9.999   .     S
V100     V101    9.999   .     S
V101     Er102    9.999   .     S
V101     V106    10.0   .     S
V103     Er105    9.999   1_655     S
V103     V104    9.999   1_655     S
V103     V127    10.0   .     S
V103     V109    10.0   .     S
V104     Er105    9.999   .     S
V104     V103    9.999   1_455     S
V104     V128    10.0   .     S
V104     V286    10.0   .     S
Er105     V103    9.999   1_455     S
Er105     Er129    10.0   .     S
Er105     Er219    10.0   .     S
V106     Er108    9.999   .     S
V106     V107    9.999   .     S
V106     V236    10.0   .     S
V107     Er108    9.999   .     S
V107     V235    10.0   .     S
Er108     Er111    10.0   .     S
Er108     Er237    10.0   .     S
V109     Er111    9.999   .     S
V109     V110    9.999   .     S
V109     V113    10.0   .     S
V110     Er111    9.999   .     S
V110     V187    10.0   .     S
V110     V112    10.0   .     S
Er111     Er114    10.0   .     S
V112     Er114    9.999   .     S
V112     V113    9.999   .     S
V112     V170    10.0   .     S
V113     Er114    9.999   .     S
V113     V116    10.0   .     S
Er114     Er237    10.0   .     S
V115     Er117    9.999   1_556     S
V115     V116    9.999   1_556     S
V115     V154    10.0   .     S
V115     V122    10.0   .     S
V116     Er117    9.999   .     S
V116     V115    9.999   1_554     S
V116     V155    10.0   .     S
Er117     V115    9.999   1_554     S
Er117     Er156    10.0   .     S
V118     Er120    9.999   1_655     S
V118     V119    9.999   1_655     S
V118     V151    10.0   .     S
V118     V124    10.0   .     S
V119     Er120    9.999   .     S
V119     V118    9.999   1_455     S
V119     V152    10.0   .     S
Er120     V118    9.999   1_455     S
Er120     Er153    10.0   .     S
V121     Er123    9.999   .     S
V121     V122    9.999   .     S
V121     V125    10.0   .     S
V121     V169    10.0   .     S
V122     Er123    9.999   .     S
V122     V124    10.0   .     S
Er123     Er126    10.0   .     S
V124     Er126    9.999   .     S
V124     V125    9.999   .     S
V125     Er126    9.999   .     S
V125     V172    10.0   .     S
V127     Er129    9.999   1_655     S
V127     V128    9.999   1_655     S
V127     V155    10.0   .     S
V128     Er129    9.999   .     S
V128     V127    9.999   1_455     S
V128     V131    10.0   .     S
Er129     V127    9.999   1_455     S
Er129     Er228    10.0   .     S
V130     Er132    9.999   1_556     S
V130     V131    9.999   1_556     S
V130     V152    10.0   .     S
V131     Er132    9.999   .     S
V131     V130    9.999   1_554     S
Er132     V130    9.999   1_554     S
Er132     Er207    10.0   .     S
V133     Er135    9.999   1_556     S
V133     V134    9.999   1_556     S
V133     V143    10.0   .     S
V134     Er135    9.999   .     S
V134     V133    9.999   1_554     S
V134     V161    10.0   .     S
Er135     V133    9.999   1_554     S
Er135     Er183    10.0   .     S
V136     Er138    9.999   1_655     S
V136     V137    9.999   1_655     S
V136     V146    10.0   .     S
V137     Er138    9.999   .     S
V137     V136    9.999   1_455     S
V137     V140    10.0   .     S
Er138     V136    9.999   1_455     S
Er138     Er180    10.0   .     S
V139     Er141    9.999   1_565     S
V139     V140    9.999   1_565     S
V139     V149    10.0   .     S
V140     Er141    9.999   .     S
V140     V139    9.999   1_545     S
Er141     V139    9.999   1_545     S
Er141     Er204    10.0   .     S
V142     Er144    9.999   1_565     S
V142     V143    9.999   1_565     S
V142     V157    10.0   .     S
V143     Er144    9.999   .     S
V143     V142    9.999   1_545     S
Er144     V142    9.999   1_545     S
Er144     Er147    10.0   .     S
V145     Er147    9.999   1_565     S
V145     V146    9.999   1_565     S
V145     V148    10.0   .     S
V146     Er147    9.999   .     S
V146     V145    9.999   1_545     S
Er147     V145    9.999   1_545     S
V148     Er150    9.999   1_655     S
V148     V149    9.999   1_655     S
V149     Er150    9.999   .     S
V149     V148    9.999   1_455     S
Er150     V148    9.999   1_455     S
Er150     Er153    10.0   .     S
V151     Er153    9.999   1_655     S
V151     V152    9.999   1_655     S
V151     V154    10.0   .     S
V152     Er153    9.999   .     S
V152     V151    9.999   1_455     S
Er153     V151    9.999   1_455     S
V154     Er156    9.999   1_556     S
V154     V155    9.999   1_556     S
V155     Er156    9.999   .     S
V155     V154    9.999   1_554     S
Er156     V154    9.999   1_554     S
Er156     Er159    10.0   .     S
V157     Er159    9.999   1_556     S
V157     V158    9.999   1_556     S
V158     Er159    9.999   .     S
V158     V157    9.999   1_554     S
V158     V160    10.0   .     S
Er159     V157    9.999   1_554     S
V160     Er162    9.999   1_565     S
V160     V161    9.999   1_565     S
V161     Er162    9.999   .     S
V161     V160    9.999   1_545     S
Er162     V160    9.999   1_545     S
Er162     Er231    10.0   .     S
V163     Er165    9.999   1_556     S
V163     V164    9.999   1_556     S
V163     V175    10.0   .     S
V164     Er165    9.999   .     S
V164     V163    9.999   1_554     S
V164     V176    10.0   .     S
V164     V283    10.0   .     S
Er165     V163    9.999   1_554     S
Er165     Er168    10.0   .     S
Er165     Er177    10.0   .     S
V166     Er168    9.999   1_556     S
V166     V167    9.999   1_556     S
V166     V199    10.0   .     S
V167     Er168    9.999   .     S
V167     V166    9.999   1_554     S
V167     V200    10.0   .     S
V167     V248    10.0   .     S
Er168     V166    9.999   1_554     S
Er168     Er201    10.0   .     S
V169     Er171    9.999   1_556     S
V169     V170    9.999   1_556     S
V169     V181    10.0   .     S
V170     Er171    9.999   .     S
V170     V169    9.999   1_554     S
V170     V182    10.0   .     S
Er171     V169    9.999   1_554     S
Er171     Er183    10.0   .     S
V172     Er174    9.999   1_655     S
V172     V173    9.999   1_655     S
V172     V178    10.0   .     S
V173     Er174    9.999   .     S
V173     V172    9.999   1_455     S
V173     V179    10.0   .     S
Er174     V172    9.999   1_455     S
Er174     Er180    10.0   .     S
V175     Er177    9.999   1_556     S
V175     V176    9.999   1_556     S
V175     V179    10.0   .     S
V176     Er177    9.999   .     S
V176     V175    9.999   1_554     S
V176     V185    10.0   .     S
Er177     V175    9.999   1_554     S
Er177     Er201    10.0   .     S
V178     Er180    9.999   1_655     S
V178     V179    9.999   1_655     S
V178     V181    10.0   .     S
V179     Er180    9.999   .     S
V179     V178    9.999   1_455     S
Er180     V178    9.999   1_455     S
V181     Er183    9.999   1_556     S
V181     V182    9.999   1_556     S
V182     Er183    9.999   .     S
V182     V181    9.999   1_554     S
V182     V184    10.0   .     S
Er183     V181    9.999   1_554     S
V184     Er186    9.999   1_655     S
V184     V185    9.999   1_655     S
V184     V187    10.0   .     S
V185     Er186    9.999   .     S
V185     V184    9.999   1_455     S
V185     V188    10.0   .     S
Er186     V184    9.999   1_455     S
Er186     Er189    10.0   .     S
Er186     Er234    10.0   .     S
V187     Er189    9.999   1_655     S
V187     V188    9.999   1_655     S
V188     Er189    9.999   .     S
V188     V187    9.999   1_455     S
V188     V287    10.0   .     S
Er189     V187    9.999   1_455     S
Er189     Er192    10.0   .     S
V190     Er192    9.999   1_655     S
V190     V191    9.999   1_655     S
V190     V232    10.0   .     S
V191     Er192    9.999   .     S
V191     V190    9.999   1_455     S
V191     V233    10.0   .     S
V191     V274    10.0   .     S
Er192     V190    9.999   1_455     S
Er192     Er234    10.0   .     S
V193     Er195    9.999   1_556     S
V193     V194    9.999   1_556     S
V193     V205    10.0   .     S
V194     Er195    9.999   .     S
V194     V193    9.999   1_554     S
V194     V206    10.0   .     S
Er195     V193    9.999   1_554     S
Er195     Er207    10.0   .     S
V196     Er198    9.999   1_565     S
V196     V197    9.999   1_565     S
V196     V202    10.0   .     S
V197     Er198    9.999   .     S
V197     V196    9.999   1_545     S
V197     V203    10.0   .     S
Er198     V196    9.999   1_545     S
Er198     Er204    10.0   .     S
V199     Er201    9.999   1_556     S
V199     V200    9.999   1_556     S
V199     V203    10.0   .     S
V200     Er201    9.999   .     S
V200     V199    9.999   1_554     S
V200     V209    10.0   .     S
Er201     V199    9.999   1_554     S
V202     Er204    9.999   1_565     S
V202     V203    9.999   1_565     S
V202     V205    10.0   .     S
V203     Er204    9.999   .     S
V203     V202    9.999   1_545     S
Er204     V202    9.999   1_545     S
V205     Er207    9.999   1_556     S
V205     V206    9.999   1_556     S
V206     Er207    9.999   .     S
V206     V205    9.999   1_554     S
V206     V208    10.0   .     S
Er207     V205    9.999   1_554     S
V208     Er210    9.999   1_565     S
V208     V209    9.999   1_565     S
V208     V211    10.0   .     S
V209     Er210    9.999   .     S
V209     V208    9.999   1_545     S
V209     V212    10.0   .     S
Er210     V208    9.999   1_545     S
Er210     Er213    10.0   .     S
Er210     Er225    10.0   .     S
V211     Er213    9.999   1_565     S
V211     V212    9.999   1_565     S
V212     Er213    9.999   .     S
V212     V211    9.999   1_545     S
V212     V250    10.0   .     S
Er213     V211    9.999   1_545     S
Er213     Er216    10.0   .     S
V214     Er216    9.999   1_565     S
V214     V215    9.999   1_565     S
V214     V223    10.0   .     S
V215     Er216    9.999   .     S
V215     V214    9.999   1_545     S
V215     V224    10.0   .     S
V215     V272    10.0   .     S
Er216     V214    9.999   1_545     S
Er216     Er225    10.0   .     S
V217     Er219    9.999   1_655     S
V217     V218    9.999   1_655     S
V217     V226    10.0   .     S
V218     Er219    9.999   .     S
V218     V217    9.999   1_455     S
V218     V227    10.0   .     S
Er219     V217    9.999   1_455     S
Er219     Er228    10.0   .     S
V220     Er222    9.999   1_565     S
V220     V221    9.999   1_565     S
V220     V229    10.0   .     S
V221     Er222    9.999   .     S
V221     V220    9.999   1_545     S
V221     V230    10.0   .     S
Er222     V220    9.999   1_545     S
Er222     Er231    10.0   .     S
V223     Er225    9.999   1_565     S
V223     V224    9.999   1_565     S
V223     V227    10.0   .     S
V224     Er225    9.999   .     S
V224     V223    9.999   1_545     S
V224     V233    10.0   .     S
Er225     V223    9.999   1_545     S
V226     Er228    9.999   1_655     S
V226     V227    9.999   1_655     S
V226     V229    10.0   .     S
V227     Er228    9.999   .     S
V227     V226    9.999   1_455     S
Er228     V226    9.999   1_455     S
V229     Er231    9.999   1_565     S
V229     V230    9.999   1_565     S
V230     Er231    9.999   .     S
V230     V229    9.999   1_545     S
V230     V232    10.0   .     S
Er231     V229    9.999   1_545     S
V232     Er234    9.999   1_655     S
V232     V233    9.999   1_655     S
V233     Er234    9.999   .     S
V233     V232    9.999   1_455     S
Er234     V232    9.999   1_455     S
V235     Er237    9.999   .     S
V235     V236    9.999   .     S
V235     V242    10.0   .     S
V236     Er237    9.999   .     S
V236     V238    10.0   .     S
V238     Er240    9.999   .     S
V238     V239    9.999   .     S
V239     Er240    9.999   .     S
V239     V277    10.0   .     S
V241     Er243    9.999   .     S
V241     V242    9.999   .     S
V241     V244    10.0   .     S
V241     V278    10.0   .     S
V242     Er243    9.999   .     S
V242     V245    10.0   .     S
Er243     Er246    10.0   .     S
Er243     Er249    10.0   .     S
V244     Er246    9.999   .     S
V244     V245    9.999   .     S
V244     V265    10.0   .     S
V245     Er246    9.999   .     S
V245     V253    10.0   .     S
Er246     Er252    10.0   .     S
V247     Er249    9.999   .     S
V247     V248    9.999   .     S
V247     V251    10.0   .     S
V248     Er249    9.999   .     S
V248     V250    10.0   .     S
Er249     Er252    10.0   .     S
V250     Er252    9.999   .     S
V250     V251    9.999   .     S
V251     Er252    9.999   .     S
V253     Er255    9.999   .     S
V253     V254    9.999   .     S
V254     Er255    9.999   .     S
V254     V256    10.0   .     S
V256     Er258    9.999   .     S
V256     V257    9.999   .     S
V257     Er258    9.999   .     S
V257     V266    10.0   .     S
V259     Er261    9.999   .     S
V259     V260    9.999   .     S
V259     V268    10.0   .     S
V260     Er261    9.999   .     S
V260     V262    10.0   .     S
V262     Er264    9.999   .     S
V262     V263    9.999   .     S
V263     Er264    9.999   .     S
V263     V281    10.0   .     S
V265     Er267    9.999   .     S
V265     V266    9.999   .     S
V265     V269    10.0   .     S
V266     Er267    9.999   .     S
V266     V268    10.0   .     S
Er267     Er270    10.0   .     S
Er267     Er273    10.0   .     S
V268     Er270    9.999   .     S
V268     V269    9.999   .     S
V269     Er270    9.999   .     S
V269     V280    10.0   .     S
Er270     Er276    10.0   .     S
V271     Er273    9.999   .     S
V271     V272    9.999   .     S
V271     V275    10.0   .     S
V272     Er273    9.999   .     S
V272     V274    10.0   .     S
Er273     Er276    10.0   .     S
V274     Er276    9.999   .     S
V274     V275    9.999   .     S
V275     Er276    9.999   .     S
V277     Er279    9.999   .     S
V277     V278    9.999   .     S
V277     V281    10.0   .     S
V278     Er279    9.999   .     S
V278     V280    10.0   .     S
Er279     Er282    10.0   .     S
Er279     Er285    10.0   .     S
V280     Er282    9.999   .     S
V280     V281    9.999   .     S
V281     Er282    9.999   .     S
Er282     Er288    10.0   .     S
V283     Er285    9.999   .     S
V283     V284    9.999   .     S
V283     V287    10.0   .     S
V284     Er285    9.999   .     S
V284     V286    10.0   .     S
Er285     Er288    10.0   .     S
V286     Er288    9.999   .     S
V286     V287    9.999   .     S
V287     Er288    9.999   .     S
