data_ftu
_audit_creation_date              2020-02-04
_audit_creation_method            'Pymatgen'
_symmetry_space_group_name_H-M    'P1'
_symmetry_Int_Tables_number       1
loop_
_symmetry_equiv_pos_as_xyz
  x,y,z
_cell_length_a                    90.7106
_cell_length_b                    90.7106
_cell_length_c                    90.7106
_cell_angle_alpha                 90.0
_cell_angle_beta                 90.0
_cell_angle_gamma                 90.0
loop_
_atom_site_label
_atom_site_type_symbol
_atom_site_fract_x
_atom_site_fract_y
_atom_site_fract_z
Er1     Er     0.4449   0.711   0.711
Er2     Er     0.5551   0.711   0.711
Er3     Er     0.5551   0.211   0.211
Er4     Er     0.4449   0.211   0.211
Er5     Er     0.4449   0.789   0.211
Er6     Er     0.5551   0.789   0.211
Er7     Er     0.5551   0.789   0.789
Er8     Er     0.4449   0.789   0.789
Er9     Er     0.4449   0.211   0.789
Er10     Er     0.5551   0.211   0.789
Er11     Er     0.711   0.711   0.4449
Er12     Er     0.711   0.711   0.5551
Er13     Er     0.789   0.211   0.4449
Er14     Er     0.789   0.211   0.5551
Er15     Er     0.789   0.789   0.5551
Er16     Er     0.789   0.789   0.4449
Er17     Er     0.211   0.211   0.5551
Er18     Er     0.211   0.211   0.4449
Er19     Er     0.211   0.789   0.4449
Er20     Er     0.211   0.789   0.5551
Er21     Er     0.711   0.5551   0.711
Er22     Er     0.711   0.4449   0.711
Er23     Er     0.789   0.5551   0.211
Er24     Er     0.789   0.4449   0.211
Er25     Er     0.211   0.4449   0.211
Er26     Er     0.211   0.5551   0.211
Er27     Er     0.211   0.5551   0.789
Er28     Er     0.211   0.4449   0.789
Er29     Er     0.789   0.4449   0.789
Er30     Er     0.789   0.5551   0.789
Er31     Er     0.711   0.211   0.9449
Er32     Er     0.711   0.211   0.0551
Er33     Er     0.789   0.711   0.9449
Er34     Er     0.789   0.711   0.0551
Er35     Er     0.711   0.789   0.9449
Er36     Er     0.711   0.789   0.0551
Er37     Er     0.211   0.711   0.9449
Er38     Er     0.211   0.711   0.0551
Er39     Er     0.9449   0.711   0.789
Er40     Er     0.0551   0.711   0.789
Er41     Er     0.711   0.9449   0.789
Er42     Er     0.711   0.0551   0.789
Er43     Er     0.9449   0.711   0.211
Er44     Er     0.0551   0.711   0.211
Er45     Er     0.711   0.9449   0.211
Er46     Er     0.711   0.0551   0.211
Er47     Er     0.789   0.9449   0.711
Er48     Er     0.789   0.0551   0.711
Er49     Er     0.9449   0.211   0.711
Er50     Er     0.0551   0.211   0.711
Er51     Er     0.211   0.9449   0.711
Er52     Er     0.211   0.0551   0.711
Er53     Er     0.9449   0.789   0.711
Er54     Er     0.0551   0.789   0.711
Er55     Er     0.5551   0.711   0.289
Er56     Er     0.4449   0.711   0.289
Er57     Er     0.5551   0.289   0.711
Er58     Er     0.4449   0.289   0.711
Er59     Er     0.711   0.289   0.5551
Er60     Er     0.711   0.289   0.4449
Er61     Er     0.289   0.711   0.5551
Er62     Er     0.289   0.711   0.4449
Er63     Er     0.711   0.4449   0.289
Er64     Er     0.711   0.5551   0.289
Er65     Er     0.289   0.4449   0.711
Er66     Er     0.289   0.5551   0.711
Er67     Er     0.289   0.789   0.9449
Er68     Er     0.289   0.789   0.0551
Er69     Er     0.789   0.289   0.9449
Er70     Er     0.789   0.289   0.0551
Er71     Er     0.289   0.211   0.9449
Er72     Er     0.289   0.211   0.0551
Er73     Er     0.211   0.289   0.9449
Er74     Er     0.211   0.289   0.0551
Er75     Er     0.9449   0.289   0.789
Er76     Er     0.0551   0.289   0.789
Er77     Er     0.289   0.9449   0.789
Er78     Er     0.289   0.0551   0.789
Er79     Er     0.9449   0.289   0.211
Er80     Er     0.0551   0.289   0.211
Er81     Er     0.289   0.9449   0.211
Er82     Er     0.289   0.0551   0.211
Er83     Er     0.211   0.9449   0.289
Er84     Er     0.211   0.0551   0.289
Er85     Er     0.9449   0.789   0.289
Er86     Er     0.0551   0.789   0.289
Er87     Er     0.789   0.9449   0.289
Er88     Er     0.789   0.0551   0.289
Er89     Er     0.4449   0.289   0.289
Er90     Er     0.5551   0.289   0.289
V91     V     0.289   0.9449   0.3669
V92     V     0.3669   0.9449   0.289
V93     V     0.3669   0.789   0.4449
V94     V     0.289   0.8669   0.4449
V95     V     0.4449   0.789   0.3669
V96     V     0.4449   0.8669   0.289
V97     V     0.6331   0.9449   0.289
V98     V     0.711   0.9449   0.3669
V99     V     0.5551   0.789   0.3669
V100     V     0.5551   0.8669   0.289
V101     V     0.6331   0.789   0.4449
V102     V     0.711   0.8669   0.4449
V103     V     0.289   0.9449   0.6331
V104     V     0.3669   0.9449   0.711
V105     V     0.3669   0.789   0.5551
V106     V     0.289   0.8669   0.5551
V107     V     0.4449   0.789   0.6331
V108     V     0.4449   0.8669   0.711
V109     V     0.711   0.9449   0.6331
V110     V     0.6331   0.9449   0.711
V111     V     0.5551   0.789   0.6331
V112     V     0.5551   0.8669   0.711
V113     V     0.6331   0.789   0.5551
V114     V     0.711   0.8669   0.5551
V115     V     0.3669   0.211   0.5551
V116     V     0.289   0.1331   0.5551
V117     V     0.4449   0.1331   0.711
V118     V     0.3669   0.0551   0.711
V119     V     0.289   0.0551   0.6331
V120     V     0.4449   0.211   0.6331
V121     V     0.5551   0.1331   0.711
V122     V     0.711   0.0551   0.6331
V123     V     0.6331   0.0551   0.711
V124     V     0.711   0.1331   0.5551
V125     V     0.6331   0.211   0.5551
V126     V     0.5551   0.211   0.6331
V127     V     0.711   0.1331   0.4449
V128     V     0.5551   0.211   0.3669
V129     V     0.5551   0.1331   0.289
V130     V     0.711   0.0551   0.3669
V131     V     0.6331   0.0551   0.289
V132     V     0.6331   0.211   0.4449
V133     V     0.4449   0.211   0.3669
V134     V     0.4449   0.1331   0.289
V135     V     0.289   0.0551   0.3669
V136     V     0.3669   0.0551   0.289
V137     V     0.3669   0.211   0.4449
V138     V     0.289   0.1331   0.4449
Er139     Er     0.289   0.289   0.4449
Er140     Er     0.289   0.289   0.5551
V141     V     0.289   0.6331   0.9449
V142     V     0.3669   0.711   0.9449
V143     V     0.3669   0.5551   0.789
V144     V     0.289   0.5551   0.8669
V145     V     0.4449   0.6331   0.789
V146     V     0.4449   0.711   0.8669
V147     V     0.711   0.6331   0.9449
V148     V     0.6331   0.711   0.9449
V149     V     0.5551   0.6331   0.789
V150     V     0.5551   0.711   0.8669
V151     V     0.6331   0.5551   0.789
V152     V     0.711   0.5551   0.8669
V153     V     0.289   0.3669   0.9449
V154     V     0.3669   0.289   0.9449
V155     V     0.3669   0.4449   0.789
V156     V     0.289   0.4449   0.8669
V157     V     0.4449   0.3669   0.789
V158     V     0.4449   0.289   0.8669
V159     V     0.6331   0.289   0.9449
V160     V     0.711   0.3669   0.9449
V161     V     0.5551   0.3669   0.789
V162     V     0.5551   0.289   0.8669
V163     V     0.6331   0.4449   0.789
V164     V     0.711   0.4449   0.8669
V165     V     0.711   0.4449   0.1331
V166     V     0.5551   0.3669   0.211
V167     V     0.5551   0.289   0.1331
V168     V     0.711   0.3669   0.0551
V169     V     0.6331   0.289   0.0551
V170     V     0.6331   0.4449   0.211
V171     V     0.4449   0.3669   0.211
V172     V     0.4449   0.289   0.1331
V173     V     0.289   0.3669   0.0551
V174     V     0.3669   0.289   0.0551
V175     V     0.3669   0.4449   0.211
V176     V     0.289   0.4449   0.1331
V177     V     0.711   0.5551   0.1331
V178     V     0.6331   0.711   0.0551
V179     V     0.711   0.6331   0.0551
V180     V     0.5551   0.711   0.1331
V181     V     0.5551   0.6331   0.211
V182     V     0.6331   0.5551   0.211
V183     V     0.4449   0.711   0.1331
V184     V     0.3669   0.5551   0.211
V185     V     0.289   0.5551   0.1331
V186     V     0.3669   0.711   0.0551
V187     V     0.289   0.6331   0.0551
V188     V     0.4449   0.6331   0.211
Er189     Er     0.289   0.5551   0.289
Er190     Er     0.289   0.4449   0.289
V191     V     0.9449   0.289   0.6331
V192     V     0.9449   0.3669   0.711
V193     V     0.789   0.3669   0.5551
V194     V     0.8669   0.289   0.5551
V195     V     0.789   0.4449   0.6331
V196     V     0.8669   0.4449   0.711
V197     V     0.9449   0.711   0.6331
V198     V     0.9449   0.6331   0.711
V199     V     0.789   0.5551   0.6331
V200     V     0.8669   0.5551   0.711
V201     V     0.789   0.6331   0.5551
V202     V     0.8669   0.711   0.5551
V203     V     0.9449   0.6331   0.289
V204     V     0.9449   0.711   0.3669
V205     V     0.789   0.6331   0.4449
V206     V     0.8669   0.711   0.4449
V207     V     0.789   0.5551   0.3669
V208     V     0.8669   0.5551   0.289
V209     V     0.9449   0.3669   0.289
V210     V     0.9449   0.289   0.3669
V211     V     0.789   0.3669   0.4449
V212     V     0.8669   0.289   0.4449
V213     V     0.789   0.4449   0.3669
V214     V     0.8669   0.4449   0.289
V215     V     0.211   0.3669   0.4449
V216     V     0.1331   0.289   0.4449
V217     V     0.0551   0.3669   0.289
V218     V     0.0551   0.289   0.3669
V219     V     0.211   0.4449   0.3669
V220     V     0.1331   0.4449   0.289
V221     V     0.211   0.5551   0.3669
V222     V     0.1331   0.5551   0.289
V223     V     0.1331   0.711   0.4449
V224     V     0.0551   0.711   0.3669
V225     V     0.0551   0.6331   0.289
V226     V     0.211   0.6331   0.4449
V227     V     0.211   0.3669   0.5551
V228     V     0.1331   0.289   0.5551
V229     V     0.1331   0.4449   0.711
V230     V     0.0551   0.3669   0.711
V231     V     0.0551   0.289   0.6331
V232     V     0.211   0.4449   0.6331
V233     V     0.1331   0.711   0.5551
V234     V     0.0551   0.6331   0.711
V235     V     0.0551   0.711   0.6331
V236     V     0.1331   0.5551   0.711
V237     V     0.211   0.5551   0.6331
V238     V     0.211   0.6331   0.5551
V239     V     0.789   0.0551   0.8669
V240     V     0.8669   0.0551   0.789
V241     V     0.789   0.1331   0.9449
V242     V     0.8669   0.211   0.9449
V243     V     0.9449   0.1331   0.789
V244     V     0.9449   0.211   0.8669
V245     V     0.1331   0.211   0.9449
V246     V     0.211   0.1331   0.9449
V247     V     0.1331   0.0551   0.789
V248     V     0.0551   0.1331   0.789
V249     V     0.0551   0.211   0.8669
V250     V     0.211   0.0551   0.8669
V251     V     0.8669   0.789   0.9449
V252     V     0.789   0.8669   0.9449
V253     V     0.8669   0.9449   0.789
V254     V     0.789   0.9449   0.8669
V255     V     0.9449   0.789   0.8669
V256     V     0.9449   0.8669   0.789
V257     V     0.0551   0.8669   0.789
V258     V     0.0551   0.789   0.8669
V259     V     0.1331   0.9449   0.789
V260     V     0.211   0.9449   0.8669
V261     V     0.1331   0.789   0.9449
V262     V     0.211   0.8669   0.9449
V263     V     0.9449   0.1331   0.211
V264     V     0.9449   0.211   0.1331
V265     V     0.789   0.1331   0.0551
V266     V     0.789   0.0551   0.1331
V267     V     0.8669   0.0551   0.211
V268     V     0.8669   0.211   0.0551
V269     V     0.8669   0.789   0.0551
V270     V     0.789   0.8669   0.0551
V271     V     0.789   0.9449   0.1331
V272     V     0.8669   0.9449   0.211
V273     V     0.9449   0.789   0.1331
V274     V     0.9449   0.8669   0.211
V275     V     0.211   0.0551   0.1331
V276     V     0.211   0.1331   0.0551
V277     V     0.0551   0.211   0.1331
V278     V     0.1331   0.211   0.0551
V279     V     0.0551   0.1331   0.211
V280     V     0.1331   0.0551   0.211
V281     V     0.211   0.9449   0.1331
V282     V     0.1331   0.9449   0.211
V283     V     0.0551   0.789   0.1331
V284     V     0.1331   0.789   0.0551
V285     V     0.211   0.8669   0.0551
V286     V     0.0551   0.8669   0.211
Er287     Er     0.9449   0.211   0.289
Er288     Er     0.0551   0.211   0.289
loop_
_geom_bond_atom_site_label_1
_geom_bond_atom_site_label_2
_geom_bond_distance
_geom_bond_site_symmetry_2
_ccdc_geom_bond_type
Er1     V107    10.0   .     S
Er1     V145    10.0   .     S
Er1     Er2    10.0   .     S
Er1     Er8    10.001   .     S
Er2     V111    10.0   .     S
Er2     V149    10.0   .     S
Er2     Er7    10.001   .     S
Er3     V129    10.0   .     S
Er3     V167    10.0   .     S
Er3     Er4    10.0   .     S
Er3     Er90    10.001   .     S
Er4     V134    10.0   .     S
Er4     V172    10.0   .     S
Er4     Er89    10.001   .     S
Er5     V96    10.0   .     S
Er5     V183    10.0   .     S
Er5     Er6    10.0   .     S
Er5     Er56    10.001   .     S
Er6     V100    10.0   .     S
Er6     V180    10.0   .     S
Er6     Er55    10.001   .     S
Er7     V112    10.0   .     S
Er7     V150    10.0   .     S
Er7     Er8    10.0   .     S
Er8     V108    10.0   .     S
Er8     V146    10.0   .     S
Er9     V158    10.0   .     S
Er9     V117    10.0   .     S
Er9     Er10    10.0   .     S
Er9     Er58    10.001   .     S
Er10     V162    10.0   .     S
Er10     V121    10.0   .     S
Er10     Er57    10.001   .     S
Er11     V205    10.0   .     S
Er11     V101    10.0   .     S
Er11     Er12    10.0   .     S
Er11     Er16    10.001   .     S
Er12     V201    10.0   .     S
Er12     V113    10.0   .     S
Er12     Er15    10.001   .     S
Er13     V212    10.0   .     S
Er13     V127    10.0   .     S
Er13     Er14    10.0   .     S
Er13     Er60    10.001   .     S
Er14     V194    10.0   .     S
Er14     V124    10.0   .     S
Er14     Er59    10.001   .     S
Er15     V202    10.0   .     S
Er15     V114    10.0   .     S
Er15     Er16    10.0   .     S
Er16     V206    10.0   .     S
Er16     V102    10.0   .     S
Er17     V228    10.0   .     S
Er17     V116    10.0   .     S
Er17     Er18    10.0   .     S
Er17     Er140    10.001   .     S
Er18     V216    10.0   .     S
Er18     V138    10.0   .     S
Er18     Er139    10.001   .     S
Er19     V94    10.0   .     S
Er19     V223    10.0   .     S
Er19     Er20    10.0   .     S
Er19     Er62    10.001   .     S
Er20     V106    10.0   .     S
Er20     V233    10.0   .     S
Er20     Er61    10.001   .     S
Er21     V199    10.0   .     S
Er21     V151    10.0   .     S
Er21     Er22    10.0   .     S
Er21     Er30    10.001   .     S
Er22     V195    10.0   .     S
Er22     V163    10.0   .     S
Er22     Er29    10.001   .     S
Er23     V208    10.0   .     S
Er23     V177    10.0   .     S
Er23     Er24    10.0   .     S
Er23     Er64    10.001   .     S
Er24     V214    10.0   .     S
Er24     V165    10.0   .     S
Er24     Er63    10.001   .     S
Er25     V220    10.0   .     S
Er25     V176    10.0   .     S
Er25     Er26    10.0   .     S
Er25     Er190    10.001   .     S
Er26     V222    10.0   .     S
Er26     V185    10.0   .     S
Er26     Er189    10.001   .     S
Er27     V144    10.0   .     S
Er27     V236    10.0   .     S
Er27     Er28    10.0   .     S
Er27     Er66    10.001   .     S
Er28     V156    10.0   .     S
Er28     V229    10.0   .     S
Er28     Er65    10.001   .     S
Er29     V196    10.0   .     S
Er29     V164    10.0   .     S
Er29     Er30    10.0   .     S
Er30     V200    10.0   .     S
Er30     V152    10.0   .     S
Er31     V159    10.0   .     S
Er31     V241    10.0   .     S
Er31     Er32    10.0   1_556     S
Er31     Er69    10.001   .     S
Er32     V169    10.0   .     S
Er32     V265    10.0   .     S
Er32     Er31    10.0   1_554     S
Er32     Er70    10.001   .     S
Er33     V251    10.0   .     S
Er33     V147    10.0   .     S
Er33     Er34    10.0   1_556     S
Er33     Er35    10.001   .     S
Er34     V269    10.0   .     S
Er34     V179    10.0   .     S
Er34     Er33    10.0   1_554     S
Er34     Er36    10.001   .     S
Er35     V252    10.0   .     S
Er35     V148    10.0   .     S
Er35     Er36    10.0   1_556     S
Er36     V270    10.0   .     S
Er36     V178    10.0   .     S
Er36     Er35    10.0   1_554     S
Er37     V141    10.0   .     S
Er37     V261    10.0   .     S
Er37     Er38    10.0   1_556     S
Er37     Er67    10.001   .     S
Er38     V187    10.0   .     S
Er38     V284    10.0   .     S
Er38     Er37    10.0   1_554     S
Er38     Er68    10.001   .     S
Er39     V255    10.0   .     S
Er39     V198    10.0   .     S
Er39     Er40    10.0   1_655     S
Er39     Er53    10.001   .     S
Er40     V258    10.0   .     S
Er40     V234    10.0   .     S
Er40     Er39    10.0   1_455     S
Er40     Er54    10.001   .     S
Er41     V254    10.0   .     S
Er41     V110    10.0   .     S
Er41     Er42    10.0   1_565     S
Er41     Er47    10.001   .     S
Er42     V239    10.0   .     S
Er42     V123    10.0   .     S
Er42     Er41    10.0   1_545     S
Er42     Er48    10.001   .     S
Er43     V203    10.0   .     S
Er43     V273    10.0   .     S
Er43     Er44    10.0   1_655     S
Er43     Er85    10.001   .     S
Er44     V225    10.0   .     S
Er44     V283    10.0   .     S
Er44     Er43    10.0   1_455     S
Er44     Er86    10.001   .     S
Er45     V97    10.0   .     S
Er45     V271    10.0   .     S
Er45     Er46    10.0   1_565     S
Er45     Er87    10.001   .     S
Er46     V131    10.0   .     S
Er46     V266    10.0   .     S
Er46     Er45    10.0   1_545     S
Er46     Er88    10.001   .     S
Er47     V253    10.0   .     S
Er47     V109    10.0   .     S
Er47     Er48    10.0   1_565     S
Er48     V240    10.0   .     S
Er48     V122    10.0   .     S
Er48     Er47    10.0   1_545     S
Er49     V191    10.0   .     S
Er49     V243    10.0   .     S
Er49     Er50    10.0   1_655     S
Er49     Er75    10.001   .     S
Er50     V231    10.0   .     S
Er50     V248    10.0   .     S
Er50     Er49    10.0   1_455     S
Er50     Er76    10.001   .     S
Er51     V103    10.0   .     S
Er51     V259    10.0   .     S
Er51     Er52    10.0   1_565     S
Er51     Er77    10.001   .     S
Er52     V119    10.0   .     S
Er52     V247    10.0   .     S
Er52     Er51    10.0   1_545     S
Er52     Er78    10.001   .     S
Er53     V256    10.0   .     S
Er53     V197    10.0   .     S
Er53     Er54    10.0   1_655     S
Er54     V257    10.0   .     S
Er54     V235    10.0   .     S
Er54     Er53    10.0   1_455     S
Er55     V181    10.0   .     S
Er55     V99    10.0   .     S
Er55     Er56    10.0   .     S
Er56     V188    10.0   .     S
Er56     V95    10.0   .     S
Er57     V126    10.0   .     S
Er57     V161    10.0   .     S
Er57     Er58    10.0   .     S
Er58     V120    10.0   .     S
Er58     V157    10.0   .     S
Er59     V125    10.0   .     S
Er59     V193    10.0   .     S
Er59     Er60    10.0   .     S
Er60     V132    10.0   .     S
Er60     V211    10.0   .     S
Er61     V238    10.0   .     S
Er61     V105    10.0   .     S
Er61     Er62    10.0   .     S
Er62     V226    10.0   .     S
Er62     V93    10.0   .     S
Er63     V170    10.0   .     S
Er63     V213    10.0   .     S
Er63     Er64    10.0   .     S
Er64     V182    10.0   .     S
Er64     V207    10.0   .     S
Er65     V232    10.0   .     S
Er65     V155    10.0   .     S
Er65     Er66    10.0   .     S
Er66     V237    10.0   .     S
Er66     V143    10.0   .     S
Er67     V262    10.0   .     S
Er67     V142    10.0   .     S
Er67     Er68    10.0   1_556     S
Er68     V285    10.0   .     S
Er68     V186    10.0   .     S
Er68     Er67    10.0   1_554     S
Er69     V242    10.0   .     S
Er69     V160    10.0   .     S
Er69     Er70    10.0   1_556     S
Er70     V268    10.0   .     S
Er70     V168    10.0   .     S
Er70     Er69    10.0   1_554     S
Er71     V154    10.0   .     S
Er71     V246    10.0   .     S
Er71     Er72    10.0   1_556     S
Er71     Er73    10.001   .     S
Er72     V174    10.0   .     S
Er72     V276    10.0   .     S
Er72     Er71    10.0   1_554     S
Er72     Er74    10.001   .     S
Er73     V153    10.0   .     S
Er73     V245    10.0   .     S
Er73     Er74    10.0   1_556     S
Er74     V173    10.0   .     S
Er74     V278    10.0   .     S
Er74     Er73    10.0   1_554     S
Er75     V244    10.0   .     S
Er75     V192    10.0   .     S
Er75     Er76    10.0   1_655     S
Er76     V249    10.0   .     S
Er76     V230    10.0   .     S
Er76     Er75    10.0   1_455     S
Er77     V260    10.0   .     S
Er77     V104    10.0   .     S
Er77     Er78    10.0   1_565     S
Er78     V250    10.0   .     S
Er78     V118    10.0   .     S
Er78     Er77    10.0   1_545     S
Er79     V209    10.0   .     S
Er79     V264    10.0   .     S
Er79     Er80    10.0   1_655     S
Er79     Er287    10.001   .     S
Er80     V217    10.0   .     S
Er80     V277    10.0   .     S
Er80     Er79    10.0   1_455     S
Er80     Er288    10.001   .     S
Er81     V92    10.0   .     S
Er81     V281    10.0   .     S
Er81     Er82    10.0   1_565     S
Er81     Er83    10.001   .     S
Er82     V136    10.0   .     S
Er82     V275    10.0   .     S
Er82     Er81    10.0   1_545     S
Er82     Er84    10.001   .     S
Er83     V91    10.0   .     S
Er83     V282    10.0   .     S
Er83     Er84    10.0   1_565     S
Er84     V135    10.0   .     S
Er84     V280    10.0   .     S
Er84     Er83    10.0   1_545     S
Er85     V274    10.0   .     S
Er85     V204    10.0   .     S
Er85     Er86    10.0   1_655     S
Er86     V286    10.0   .     S
Er86     V224    10.0   .     S
Er86     Er85    10.0   1_455     S
Er87     V272    10.0   .     S
Er87     V98    10.0   .     S
Er87     Er88    10.0   1_565     S
Er88     V267    10.0   .     S
Er88     V130    10.0   .     S
Er88     Er87    10.0   1_545     S
Er89     V133    10.0   .     S
Er89     V171    10.0   .     S
Er89     Er90    10.0   .     S
Er90     V128    10.0   .     S
Er90     V166    10.0   .     S
V91     V94    10.0   .     S
V91     V92    10.0   .     S
V91     V135    10.0   1_565     S
V92     V96    10.0   .     S
V92     V136    10.0   1_565     S
V93     V94    10.0   .     S
V93     V95    10.0   .     S
V93     V105    10.0   .     S
V94     V106    10.0   .     S
V95     V96    10.0   .     S
V95     V99    10.0   .     S
V96     V100    10.0   .     S
V97     V100    10.0   .     S
V97     V98    10.0   .     S
V97     V131    10.0   1_565     S
V98     V102    10.0   .     S
V98     V130    10.0   1_565     S
V99     V100    10.0   .     S
V99     V101    10.0   .     S
V101     V102    10.0   .     S
V101     V113    10.0   .     S
V102     V114    10.0   .     S
V103     V106    10.0   .     S
V103     V104    10.0   .     S
V103     V119    10.0   1_565     S
V104     V108    10.0   .     S
V104     V118    10.0   1_565     S
V105     V106    10.0   .     S
V105     V107    10.0   .     S
V107     V108    10.0   .     S
V107     V111    10.0   .     S
V108     V112    10.0   .     S
V109     V114    10.0   .     S
V109     V110    10.0   .     S
V109     V122    10.0   1_565     S
V110     V112    10.0   .     S
V110     V123    10.0   1_565     S
V111     V112    10.0   .     S
V111     V113    10.0   .     S
V113     V114    10.0   .     S
V115     V116    10.0   .     S
V115     V120    10.0   .     S
V115     V137    10.0   .     S
V115     Er140    10.0   .     S
V116     V119    10.0   .     S
V116     V138    10.0   .     S
V117     V120    10.0   .     S
V117     V118    10.0   .     S
V117     V121    10.0   .     S
V118     V119    10.0   .     S
V118     V104    10.0   1_545     S
V119     V103    10.0   1_545     S
V120     V126    10.0   .     S
V121     V126    10.0   .     S
V121     V123    10.0   .     S
V122     V123    10.0   .     S
V122     V124    10.0   .     S
V122     V109    10.0   1_545     S
V123     V110    10.0   1_545     S
V124     V125    10.0   .     S
V124     V127    10.0   .     S
V125     V126    10.0   .     S
V125     V132    10.0   .     S
V127     V132    10.0   .     S
V127     V130    10.0   .     S
V128     V129    10.0   .     S
V128     V132    10.0   .     S
V128     V133    10.0   .     S
V129     V131    10.0   .     S
V129     V134    10.0   .     S
V130     V131    10.0   .     S
V130     V98    10.0   1_545     S
V131     V97    10.0   1_545     S
V133     V134    10.0   .     S
V133     V137    10.0   .     S
V134     V136    10.0   .     S
V135     V136    10.0   .     S
V135     V138    10.0   .     S
V135     V91    10.0   1_545     S
V136     V92    10.0   1_545     S
V137     V138    10.0   .     S
V137     Er139    10.0   .     S
Er139     V215    10.0   .     S
Er139     Er140    10.0   .     S
Er140     V227    10.0   .     S
V141     V144    10.0   .     S
V141     V142    10.0   .     S
V141     V187    10.0   1_556     S
V142     V146    10.0   .     S
V142     V186    10.0   1_556     S
V143     V144    10.0   .     S
V143     V145    10.0   .     S
V143     V155    10.0   .     S
V144     V156    10.0   .     S
V145     V146    10.0   .     S
V145     V149    10.0   .     S
V146     V150    10.0   .     S
V147     V152    10.0   .     S
V147     V148    10.0   .     S
V147     V179    10.0   1_556     S
V148     V150    10.0   .     S
V148     V178    10.0   1_556     S
V149     V150    10.0   .     S
V149     V151    10.0   .     S
V151     V152    10.0   .     S
V151     V163    10.0   .     S
V152     V164    10.0   .     S
V153     V156    10.0   .     S
V153     V154    10.0   .     S
V153     V173    10.0   1_556     S
V154     V158    10.0   .     S
V154     V174    10.0   1_556     S
V155     V156    10.0   .     S
V155     V157    10.0   .     S
V157     V158    10.0   .     S
V157     V161    10.0   .     S
V158     V162    10.0   .     S
V159     V162    10.0   .     S
V159     V160    10.0   .     S
V159     V169    10.0   1_556     S
V160     V164    10.0   .     S
V160     V168    10.0   1_556     S
V161     V162    10.0   .     S
V161     V163    10.0   .     S
V163     V164    10.0   .     S
V165     V170    10.0   .     S
V165     V168    10.0   .     S
V165     V177    10.0   .     S
V166     V167    10.0   .     S
V166     V170    10.0   .     S
V166     V171    10.0   .     S
V167     V169    10.0   .     S
V167     V172    10.0   .     S
V168     V169    10.0   .     S
V168     V160    10.0   1_554     S
V169     V159    10.0   1_554     S
V170     V182    10.0   .     S
V171     V172    10.0   .     S
V171     V175    10.0   .     S
V172     V174    10.0   .     S
V173     V174    10.0   .     S
V173     V176    10.0   .     S
V173     V153    10.0   1_554     S
V174     V154    10.0   1_554     S
V175     V176    10.0   .     S
V175     V184    10.0   .     S
V175     Er190    10.0   .     S
V176     V185    10.0   .     S
V177     V182    10.0   .     S
V177     V179    10.0   .     S
V178     V179    10.0   .     S
V178     V180    10.0   .     S
V178     V148    10.0   1_554     S
V179     V147    10.0   1_554     S
V180     V181    10.0   .     S
V180     V183    10.0   .     S
V181     V182    10.0   .     S
V181     V188    10.0   .     S
V183     V188    10.0   .     S
V183     V186    10.0   .     S
V184     V185    10.0   .     S
V184     V188    10.0   .     S
V184     Er189    10.0   .     S
V185     V187    10.0   .     S
V186     V187    10.0   .     S
V186     V142    10.0   1_554     S
V187     V141    10.0   1_554     S
Er189     V221    10.0   .     S
Er189     Er190    10.0   .     S
Er190     V219    10.0   .     S
V191     V194    10.0   .     S
V191     V192    10.0   .     S
V191     V231    10.0   1_655     S
V192     V196    10.0   .     S
V192     V230    10.0   1_655     S
V193     V194    10.0   .     S
V193     V195    10.0   .     S
V193     V211    10.0   .     S
V194     V212    10.0   .     S
V195     V196    10.0   .     S
V195     V199    10.0   .     S
V196     V200    10.0   .     S
V197     V202    10.0   .     S
V197     V198    10.0   .     S
V197     V235    10.0   1_655     S
V198     V200    10.0   .     S
V198     V234    10.0   1_655     S
V199     V200    10.0   .     S
V199     V201    10.0   .     S
V201     V202    10.0   .     S
V201     V205    10.0   .     S
V202     V206    10.0   .     S
V203     V208    10.0   .     S
V203     V204    10.0   .     S
V203     V225    10.0   1_655     S
V204     V206    10.0   .     S
V204     V224    10.0   1_655     S
V205     V206    10.0   .     S
V205     V207    10.0   .     S
V207     V208    10.0   .     S
V207     V213    10.0   .     S
V208     V214    10.0   .     S
V209     V214    10.0   .     S
V209     V210    10.0   .     S
V209     V217    10.0   1_655     S
V210     V212    10.0   .     S
V210     V218    10.0   1_655     S
V210     Er287    10.0   .     S
V211     V212    10.0   .     S
V211     V213    10.0   .     S
V213     V214    10.0   .     S
V215     V216    10.0   .     S
V215     V219    10.0   .     S
V215     V227    10.0   .     S
V216     V218    10.0   .     S
V216     V228    10.0   .     S
V217     V218    10.0   .     S
V217     V220    10.0   .     S
V217     V209    10.0   1_455     S
V218     V210    10.0   1_455     S
V218     Er288    10.0   .     S
V219     V220    10.0   .     S
V219     V221    10.0   .     S
V220     V222    10.0   .     S
V221     V222    10.0   .     S
V221     V226    10.0   .     S
V222     V225    10.0   .     S
V223     V226    10.0   .     S
V223     V224    10.0   .     S
V223     V233    10.0   .     S
V224     V225    10.0   .     S
V224     V204    10.0   1_455     S
V225     V203    10.0   1_455     S
V226     V238    10.0   .     S
V227     V228    10.0   .     S
V227     V232    10.0   .     S
V228     V231    10.0   .     S
V229     V232    10.0   .     S
V229     V230    10.0   .     S
V229     V236    10.0   .     S
V230     V231    10.0   .     S
V230     V192    10.0   1_455     S
V231     V191    10.0   1_455     S
V232     V237    10.0   .     S
V233     V238    10.0   .     S
V233     V235    10.0   .     S
V234     V235    10.0   .     S
V234     V236    10.0   .     S
V234     V198    10.0   1_455     S
V235     V197    10.0   1_455     S
V236     V237    10.0   .     S
V237     V238    10.0   .     S
V239     V240    10.0   .     S
V239     V241    10.0   .     S
V239     V254    10.0   1_545     S
V240     V243    10.0   .     S
V240     V253    10.0   1_545     S
V241     V242    10.0   .     S
V241     V265    10.0   1_556     S
V242     V244    10.0   .     S
V242     V268    10.0   1_556     S
V243     V244    10.0   .     S
V243     V248    10.0   1_655     S
V244     V249    10.0   1_655     S
V245     V249    10.0   .     S
V245     V246    10.0   .     S
V245     V278    10.0   1_556     S
V246     V250    10.0   .     S
V246     V276    10.0   1_556     S
V247     V250    10.0   .     S
V247     V248    10.0   .     S
V247     V259    10.0   1_545     S
V248     V249    10.0   .     S
V248     V243    10.0   1_455     S
V249     V244    10.0   1_455     S
V250     V260    10.0   1_545     S
V251     V252    10.0   .     S
V251     V255    10.0   .     S
V251     V269    10.0   1_556     S
V252     V254    10.0   .     S
V252     V270    10.0   1_556     S
V253     V240    10.0   1_565     S
V253     V254    10.0   .     S
V253     V256    10.0   .     S
V254     V239    10.0   1_565     S
V255     V256    10.0   .     S
V255     V258    10.0   1_655     S
V256     V257    10.0   1_655     S
V257     V258    10.0   .     S
V257     V259    10.0   .     S
V257     V256    10.0   1_455     S
V258     V261    10.0   .     S
V258     V255    10.0   1_455     S
V259     V247    10.0   1_565     S
V259     V260    10.0   .     S
V260     V250    10.0   1_565     S
V260     V262    10.0   .     S
V261     V262    10.0   .     S
V261     V284    10.0   1_556     S
V262     V285    10.0   1_556     S
V263     V267    10.0   .     S
V263     V264    10.0   .     S
V263     V279    10.0   1_655     S
V263     Er287    10.0   .     S
V264     V268    10.0   .     S
V264     V277    10.0   1_655     S
V265     V268    10.0   .     S
V265     V266    10.0   .     S
V265     V241    10.0   1_554     S
V266     V267    10.0   .     S
V266     V271    10.0   1_545     S
V267     V272    10.0   1_545     S
V268     V242    10.0   1_554     S
V269     V270    10.0   .     S
V269     V273    10.0   .     S
V269     V251    10.0   1_554     S
V270     V271    10.0   .     S
V270     V252    10.0   1_554     S
V271     V266    10.0   1_565     S
V271     V272    10.0   .     S
V272     V267    10.0   1_565     S
V272     V274    10.0   .     S
V273     V274    10.0   .     S
V273     V283    10.0   1_655     S
V274     V286    10.0   1_655     S
V275     V276    10.0   .     S
V275     V280    10.0   .     S
V275     V281    10.0   1_545     S
V276     V278    10.0   .     S
V276     V246    10.0   1_554     S
V277     V278    10.0   .     S
V277     V279    10.0   .     S
V277     V264    10.0   1_455     S
V278     V245    10.0   1_554     S
V279     V280    10.0   .     S
V279     V263    10.0   1_455     S
V279     Er288    10.0   .     S
V280     V282    10.0   1_545     S
V281     V275    10.0   1_565     S
V281     V285    10.0   .     S
V281     V282    10.0   .     S
V282     V280    10.0   1_565     S
V282     V286    10.0   .     S
V283     V286    10.0   .     S
V283     V284    10.0   .     S
V283     V273    10.0   1_455     S
V284     V285    10.0   .     S
V284     V261    10.0   1_554     S
V285     V262    10.0   1_554     S
V286     V274    10.0   1_455     S
Er287     Er288    10.0   1_655     S
Er288     Er287    10.0   1_455     S
