data_ftwt
_audit_creation_date              2020-02-04
_audit_creation_method            'Pymatgen'
_symmetry_space_group_name_H-M    'P1'
_symmetry_Int_Tables_number       1
loop_
_symmetry_equiv_pos_as_xyz
  x,y,z
_cell_length_a                    76.5686
_cell_length_b                    76.5686
_cell_length_c                    76.5686
_cell_angle_alpha                 90.0
_cell_angle_beta                 90.0
_cell_angle_gamma                 90.0
loop_
_atom_site_label
_atom_site_type_symbol
_atom_site_fract_x
_atom_site_fract_y
_atom_site_fract_z
Ti1     Ti     0.6577   0.1577   0.25
Ti2     Ti     0.6577   0.25   0.1577
Ti3     Ti     0.25   0.6577   0.1577
Ti4     Ti     0.1577   0.6577   0.25
Ti5     Ti     0.1577   0.25   0.6577
Ti6     Ti     0.25   0.1577   0.6577
Er7     Er     0.6577   0.9347   0.8424
Er8     Er     0.6577   0.0653   0.8424
Er9     Er     0.8424   0.9347   0.6577
Er10     Er     0.8424   0.0653   0.6577
Ti11     Ti     0.75   0.8424   0.6577
Ti12     Ti     0.6577   0.8424   0.75
Er13     Er     0.8424   0.6577   0.9347
Er14     Er     0.8424   0.6577   0.0653
Er15     Er     0.6577   0.8424   0.9347
Er16     Er     0.6577   0.8424   0.0653
Ti17     Ti     0.6577   0.75   0.8424
Ti18     Ti     0.75   0.6577   0.8424
Er19     Er     0.9347   0.6577   0.8424
Er20     Er     0.0653   0.6577   0.8424
Ti21     Ti     0.8424   0.6577   0.75
Ti22     Ti     0.8424   0.75   0.6577
Er23     Er     0.0653   0.8424   0.6577
Er24     Er     0.9347   0.8424   0.6577
Er25     Er     0.6577   0.9347   0.1577
Er26     Er     0.6577   0.0653   0.1577
Ti27     Ti     0.6577   0.8424   0.25
Ti28     Ti     0.6577   0.75   0.1577
Ti29     Ti     0.75   0.6577   0.1577
Ti30     Ti     0.8424   0.6577   0.25
Er31     Er     0.0653   0.6577   0.1577
Er32     Er     0.9347   0.6577   0.1577
Er33     Er     0.6577   0.1577   0.9347
Er34     Er     0.6577   0.1577   0.0653
Ti35     Ti     0.6577   0.25   0.8424
Ti36     Ti     0.6577   0.1577   0.75
Ti37     Ti     0.75   0.1577   0.6577
Ti38     Ti     0.8424   0.25   0.6577
Er39     Er     0.0653   0.1577   0.6577
Er40     Er     0.9347   0.1577   0.6577
Er41     Er     0.1577   0.6577   0.9347
Er42     Er     0.1577   0.6577   0.0653
Ti43     Ti     0.25   0.6577   0.8424
Ti44     Ti     0.1577   0.6577   0.75
Ti45     Ti     0.1577   0.75   0.6577
Ti46     Ti     0.25   0.8424   0.6577
Er47     Er     0.1577   0.0653   0.6577
Er48     Er     0.1577   0.9347   0.6577
Er49     Er     0.3424   0.8424   0.4347
Er50     Er     0.3424   0.8424   0.5653
Er51     Er     0.5653   0.8424   0.3424
Er52     Er     0.4347   0.8424   0.3424
Er53     Er     0.8424   0.3424   0.4347
Er54     Er     0.8424   0.3424   0.5653
Er55     Er     0.8424   0.4347   0.3424
Er56     Er     0.8424   0.5653   0.3424
Er57     Er     0.4347   0.3424   0.8424
Er58     Er     0.5653   0.3424   0.8424
Er59     Er     0.3424   0.5653   0.8424
Er60     Er     0.3424   0.4347   0.8424
V61     V     0.5653   0.75   0.9347
V62     V     0.4347   0.75   0.9347
V63     V     0.5653   0.75   0.0653
V64     V     0.4347   0.75   0.0653
Er65     Er     0.5653   0.6576   0.8424
Er66     Er     0.4347   0.6576   0.8424
Er67     Er     0.6576   0.4347   0.8424
Er68     Er     0.6576   0.5653   0.8424
V69     V     0.75   0.4347   0.9347
V70     V     0.75   0.5653   0.9347
V71     V     0.75   0.4347   0.0653
V72     V     0.75   0.5653   0.0653
V73     V     0.9347   0.5653   0.75
V74     V     0.9347   0.4347   0.75
V75     V     0.0653   0.5653   0.75
V76     V     0.0653   0.4347   0.75
Er77     Er     0.8424   0.5653   0.6576
Er78     Er     0.8424   0.4347   0.6576
Er79     Er     0.8424   0.6576   0.4347
Er80     Er     0.8424   0.6576   0.5653
V81     V     0.9347   0.75   0.4347
V82     V     0.9347   0.75   0.5653
V83     V     0.0653   0.75   0.4347
V84     V     0.0653   0.75   0.5653
V85     V     0.4347   0.9347   0.75
V86     V     0.5653   0.9347   0.75
V87     V     0.4347   0.0653   0.75
V88     V     0.5653   0.0653   0.75
Er89     Er     0.5653   0.8424   0.6576
Er90     Er     0.4347   0.8424   0.6576
Er91     Er     0.6576   0.8424   0.5653
Er92     Er     0.6576   0.8424   0.4347
V93     V     0.75   0.0653   0.4347
V94     V     0.75   0.0653   0.5653
V95     V     0.75   0.9347   0.5653
V96     V     0.75   0.9347   0.4347
Er97     Er     0.5653   0.1577   0.6576
Er98     Er     0.4347   0.1577   0.6576
Er99     Er     0.6576   0.1577   0.4347
Er100     Er     0.6576   0.1577   0.5653
Er101     Er     0.1577   0.6576   0.5653
Er102     Er     0.1577   0.6576   0.4347
Er103     Er     0.1577   0.4347   0.6576
Er104     Er     0.1577   0.5653   0.6576
Er105     Er     0.6576   0.5653   0.1577
Er106     Er     0.6576   0.4347   0.1577
Er107     Er     0.4347   0.6576   0.1577
Er108     Er     0.5653   0.6576   0.1577
Ti109     Ti     0.3424   0.1577   0.75
Er110     Er     0.3424   0.9347   0.8424
Er111     Er     0.3424   0.0653   0.8424
Ti112     Ti     0.3424   0.8424   0.75
Ti113     Ti     0.3424   0.75   0.1577
Ti114     Ti     0.3424   0.75   0.8424
Er115     Er     0.3424   0.8424   0.0653
Er116     Er     0.3424   0.8424   0.9347
Ti117     Ti     0.75   0.3424   0.1577
Er118     Er     0.8424   0.3424   0.9347
Er119     Er     0.8424   0.3424   0.0653
Ti120     Ti     0.75   0.3424   0.8424
Ti121     Ti     0.1577   0.3424   0.75
Ti122     Ti     0.8424   0.3424   0.75
Er123     Er     0.0653   0.3424   0.8424
Er124     Er     0.9347   0.3424   0.8424
Ti125     Ti     0.1577   0.75   0.3424
Er126     Er     0.9347   0.8424   0.3424
Er127     Er     0.0653   0.8424   0.3424
Ti128     Ti     0.8424   0.75   0.3424
Ti129     Ti     0.75   0.1577   0.3424
Ti130     Ti     0.75   0.8424   0.3424
Er131     Er     0.8424   0.0653   0.3424
Er132     Er     0.8424   0.9347   0.3424
Er133     Er     0.3424   0.1577   0.4347
Er134     Er     0.3424   0.1577   0.5653
Er135     Er     0.4347   0.1577   0.3424
Er136     Er     0.5653   0.1577   0.3424
Er137     Er     0.1577   0.3424   0.4347
Er138     Er     0.1577   0.3424   0.5653
Er139     Er     0.1577   0.5653   0.3424
Er140     Er     0.1577   0.4347   0.3424
V141     V     0.4347   0.25   0.9347
V142     V     0.5653   0.25   0.9347
V143     V     0.4347   0.25   0.0653
V144     V     0.5653   0.25   0.0653
Ti145     Ti     0.3424   0.25   0.8424
Er146     Er     0.3424   0.1577   0.0653
Er147     Er     0.3424   0.1577   0.9347
Ti148     Ti     0.3424   0.25   0.1577
Ti149     Ti     0.3424   0.1577   0.25
V150     V     0.4347   0.0653   0.25
V151     V     0.5653   0.0653   0.25
V152     V     0.5653   0.9347   0.25
V153     V     0.4347   0.9347   0.25
Er154     Er     0.3424   0.9347   0.1577
Er155     Er     0.3424   0.0653   0.1577
Ti156     Ti     0.3424   0.8424   0.25
V157     V     0.9347   0.4347   0.25
V158     V     0.9347   0.5653   0.25
V159     V     0.0653   0.4347   0.25
V160     V     0.0653   0.5653   0.25
Ti161     Ti     0.8424   0.3424   0.25
Er162     Er     0.0653   0.3424   0.1577
Er163     Er     0.9347   0.3424   0.1577
V164     V     0.25   0.4347   0.0653
V165     V     0.25   0.5653   0.0653
V166     V     0.25   0.5653   0.9347
V167     V     0.25   0.4347   0.9347
Ti168     Ti     0.25   0.3424   0.8424
Er169     Er     0.1577   0.3424   0.0653
Er170     Er     0.1577   0.3424   0.9347
Ti171     Ti     0.25   0.3424   0.1577
Ti172     Ti     0.1577   0.3424   0.25
V173     V     0.25   0.9347   0.4347
V174     V     0.25   0.9347   0.5653
V175     V     0.25   0.0653   0.4347
V176     V     0.25   0.0653   0.5653
Ti177     Ti     0.25   0.8424   0.3424
Er178     Er     0.1577   0.0653   0.3424
Er179     Er     0.1577   0.9347   0.3424
Ti180     Ti     0.25   0.1577   0.3424
Ti181     Ti     0.1577   0.25   0.3424
V182     V     0.0653   0.25   0.4347
V183     V     0.0653   0.25   0.5653
V184     V     0.9347   0.25   0.4347
V185     V     0.9347   0.25   0.5653
Ti186     Ti     0.8424   0.25   0.3424
Er187     Er     0.0653   0.1577   0.3424
Er188     Er     0.9347   0.1577   0.3424
Er189     Er     0.3424   0.4347   0.1577
Er190     Er     0.3424   0.5653   0.1577
Er191     Er     0.5653   0.3424   0.1577
Er192     Er     0.4347   0.3424   0.1577
loop_
_geom_bond_atom_site_label_1
_geom_bond_atom_site_label_2
_geom_bond_distance
_geom_bond_site_symmetry_2
_ccdc_geom_bond_type
Ti1     Er26    10.0   .     S
Ti1     Er136    10.0   .     S
Ti1     Ti129    10.0   .     S
Ti1     Ti2    10.0   .     S
Ti2     Er34    10.0   .     S
Ti2     Er191    10.0   .     S
Ti2     Ti117    10.0   .     S
Ti3     Er42    10.0   .     S
Ti3     Er190    10.0   .     S
Ti3     Ti113    10.0   .     S
Ti3     Ti4    10.0   .     S
Ti4     Er31    10.0   .     S
Ti4     Er139    10.0   .     S
Ti4     Ti125    10.0   .     S
Ti5     Er39    10.0   .     S
Ti5     Er138    10.0   .     S
Ti5     Ti121    10.0   .     S
Ti5     Ti6    10.0   .     S
Ti6     Er47    10.0   .     S
Ti6     Er134    10.0   .     S
Ti6     Ti109    10.0   .     S
Er7     Er8    10.0   1_565     S
Er7     Ti12    10.0   .     S
Er7     V86    10.0   .     S
Er7     Er15    10.0   .     S
Er8     Er7    10.0   1_545     S
Er8     V88    10.0   .     S
Er8     Er33    10.0   .     S
Er8     Ti36    10.0   .     S
Er9     Er10    10.0   1_565     S
Er9     Ti11    10.0   .     S
Er9     V95    10.0   .     S
Er9     Er24    10.0   .     S
Er10     Er9    10.0   1_545     S
Er10     V94    10.0   .     S
Er10     Ti37    10.0   .     S
Er10     Er40    10.0   .     S
Ti11     Er91    10.0   .     S
Ti11     Ti12    10.0   .     S
Ti11     Ti22    10.0   .     S
Ti12     Er89    10.0   .     S
Ti12     Ti17    10.0   .     S
Er13     Er14    10.0   1_556     S
Er13     Ti18    10.0   .     S
Er13     V70    10.0   .     S
Er13     Er19    10.0   .     S
Er14     Er13    10.0   1_554     S
Er14     V72    10.0   .     S
Er14     Ti29    10.0   .     S
Er14     Er32    10.0   .     S
Er15     Er16    10.0   1_556     S
Er15     Ti17    10.0   .     S
Er15     V61    10.0   .     S
Er16     Er15    10.0   1_554     S
Er16     V63    10.0   .     S
Er16     Er25    10.0   .     S
Er16     Ti28    10.0   .     S
Ti17     Er65    10.0   .     S
Ti17     Ti18    10.0   .     S
Ti18     Er68    10.0   .     S
Ti18     Ti21    10.0   .     S
Er19     Er20    10.0   1_655     S
Er19     Ti21    10.0   .     S
Er19     V73    10.0   .     S
Er20     Er19    10.0   1_455     S
Er20     V75    10.0   .     S
Er20     Er41    10.0   .     S
Er20     Ti44    10.0   .     S
Ti21     Er77    10.0   .     S
Ti21     Ti22    10.0   .     S
Ti22     Er24    10.0   .     S
Ti22     Er80    10.0   .     S
Er23     Er24    10.0   1_455     S
Er23     V84    10.0   .     S
Er23     Ti45    10.0   .     S
Er23     Er48    10.0   .     S
Er24     Er23    10.0   1_655     S
Er24     V82    10.0   .     S
Er25     Er26    10.0   1_565     S
Er25     Ti27    10.0   .     S
Er25     V152    10.0   .     S
Er26     Er25    10.0   1_545     S
Er26     V151    10.0   .     S
Er26     Er34    10.0   .     S
Ti27     Er51    10.0   .     S
Ti27     Ti130    10.0   .     S
Ti27     Ti28    10.0   .     S
Ti28     Er108    10.0   .     S
Ti28     Ti29    10.0   .     S
Ti29     Er105    10.0   .     S
Ti29     Ti30    10.0   .     S
Ti30     Er32    10.0   .     S
Ti30     Er56    10.0   .     S
Ti30     Ti128    10.0   .     S
Er31     Er32    10.0   1_455     S
Er31     Er42    10.0   .     S
Er31     V160    10.0   .     S
Er32     V158    10.0   .     S
Er32     Er31    10.0   1_655     S
Er33     Er34    10.0   1_556     S
Er33     Ti35    10.0   .     S
Er33     V142    10.0   .     S
Er34     Er33    10.0   1_554     S
Er34     V144    10.0   .     S
Ti35     Er58    10.0   .     S
Ti35     Ti120    10.0   .     S
Ti35     Ti36    10.0   .     S
Ti36     Er97    10.0   .     S
Ti36     Ti37    10.0   .     S
Ti37     Er100    10.0   .     S
Ti37     Ti38    10.0   .     S
Ti38     Er40    10.0   .     S
Ti38     Er54    10.0   .     S
Ti38     Ti122    10.0   .     S
Er39     Er40    10.0   1_455     S
Er39     Er47    10.0   .     S
Er39     V183    10.0   .     S
Er40     V185    10.0   .     S
Er40     Er39    10.0   1_655     S
Er41     Er42    10.0   1_556     S
Er41     Ti43    10.0   .     S
Er41     V166    10.0   .     S
Er42     Er41    10.0   1_554     S
Er42     V165    10.0   .     S
Ti43     Er59    10.0   .     S
Ti43     Ti114    10.0   .     S
Ti43     Ti44    10.0   .     S
Ti44     Er104    10.0   .     S
Ti44     Ti45    10.0   .     S
Ti45     Er101    10.0   .     S
Ti45     Ti46    10.0   .     S
Ti46     Er48    10.0   .     S
Ti46     Er50    10.0   .     S
Ti46     Ti112    10.0   .     S
Er47     Er48    10.0   1_545     S
Er47     V176    10.0   .     S
Er48     V174    10.0   .     S
Er48     Er47    10.0   1_565     S
Er49     Er50    10.0   .     S
Er49     Er52    10.0   .     S
Er49     V173    10.0   .     S
Er49     Ti177    10.0   .     S
Er50     Er90    10.0   .     S
Er50     V174    10.0   .     S
Er51     Er52    10.0   .     S
Er51     Er92    10.0   .     S
Er51     V152    10.0   .     S
Er52     V153    10.0   .     S
Er52     Ti156    10.0   .     S
Er53     Er54    10.0   .     S
Er53     Er55    10.0   .     S
Er53     V184    10.0   .     S
Er53     Ti186    10.0   .     S
Er54     Er78    10.0   .     S
Er54     V185    10.0   .     S
Er55     Er56    10.0   .     S
Er55     V157    10.0   .     S
Er55     Ti161    10.0   .     S
Er56     Er79    10.0   .     S
Er56     V158    10.0   .     S
Er57     Er58    10.0   .     S
Er57     Er60    10.0   .     S
Er57     V141    10.0   .     S
Er57     Ti145    10.0   .     S
Er58     Er67    10.0   .     S
Er58     V142    10.0   .     S
Er59     Er60    10.0   .     S
Er59     Er66    10.0   .     S
Er59     V166    10.0   .     S
Er60     V167    10.0   .     S
Er60     Ti168    10.0   .     S
V61     V62    10.0   .     S
V61     V63    10.0   1_556     S
V61     Er65    10.0   .     S
V62     V64    10.0   1_556     S
V62     Er66    10.0   .     S
V62     Er116    10.0   .     S
V63     V61    10.0   1_554     S
V63     V64    10.0   .     S
V63     Er108    10.0   .     S
V64     V62    10.0   1_554     S
V64     Er107    10.0   .     S
V64     Er115    10.0   .     S
Er65     Er66    10.0   .     S
Er65     Er68    10.0   .     S
Er66     Ti114    10.0   .     S
Er67     Er68    10.0   .     S
Er67     V69    10.0   .     S
Er67     Ti120    10.0   .     S
Er68     V70    10.0   .     S
V69     V70    10.0   .     S
V69     V71    10.0   1_556     S
V69     Er118    10.0   .     S
V70     V72    10.0   1_556     S
V71     V69    10.0   1_554     S
V71     V72    10.0   .     S
V71     Er106    10.0   .     S
V71     Er119    10.0   .     S
V72     V70    10.0   1_554     S
V72     Er105    10.0   .     S
V73     V74    10.0   .     S
V73     V75    10.0   1_655     S
V73     Er77    10.0   .     S
V74     V76    10.0   1_655     S
V74     Er78    10.0   .     S
V74     Er124    10.0   .     S
V75     V73    10.0   1_455     S
V75     V76    10.0   .     S
V75     Er104    10.0   .     S
V76     V74    10.0   1_455     S
V76     Er103    10.0   .     S
V76     Er123    10.0   .     S
Er77     Er78    10.0   .     S
Er77     Er80    10.0   .     S
Er78     Ti122    10.0   .     S
Er79     Er80    10.0   .     S
Er79     V81    10.0   .     S
Er79     Ti128    10.0   .     S
Er80     V82    10.0   .     S
V81     V82    10.0   .     S
V81     V83    10.0   1_655     S
V81     Er126    10.0   .     S
V82     V84    10.0   1_655     S
V83     V81    10.0   1_455     S
V83     V84    10.0   .     S
V83     Er102    10.0   .     S
V83     Er127    10.0   .     S
V84     V82    10.0   1_455     S
V84     Er101    10.0   .     S
V85     V86    10.0   .     S
V85     V87    10.0   1_565     S
V85     Er90    10.0   .     S
V85     Er110    10.0   .     S
V86     V88    10.0   1_565     S
V86     Er89    10.0   .     S
V87     V85    10.0   1_545     S
V87     V88    10.0   .     S
V87     Er98    10.0   .     S
V87     Er111    10.0   .     S
V88     V86    10.0   1_545     S
V88     Er97    10.0   .     S
Er89     Er90    10.0   .     S
Er89     Er91    10.0   .     S
Er90     Ti112    10.0   .     S
Er91     Er92    10.0   .     S
Er91     V95    10.0   .     S
Er92     V96    10.0   .     S
Er92     Ti130    10.0   .     S
V93     V94    10.0   .     S
V93     V96    10.0   1_545     S
V93     Er99    10.0   .     S
V93     Er131    10.0   .     S
V94     V95    10.0   1_545     S
V94     Er100    10.0   .     S
V95     V94    10.0   1_565     S
V95     V96    10.0   .     S
V96     V93    10.0   1_565     S
V96     Er132    10.0   .     S
Er97     Er98    10.0   .     S
Er97     Er100    10.0   .     S
Er98     Er134    10.0   .     S
Er98     Ti109    10.0   .     S
Er99     Er100    10.0   .     S
Er99     Er136    10.0   .     S
Er99     Ti129    10.0   .     S
Er101     Er102    10.0   .     S
Er101     Er104    10.0   .     S
Er102     Er139    10.0   .     S
Er102     Ti125    10.0   .     S
Er103     Er104    10.0   .     S
Er103     Er138    10.0   .     S
Er103     Ti121    10.0   .     S
Er105     Er106    10.0   .     S
Er105     Er108    10.0   .     S
Er106     Er191    10.0   .     S
Er106     Ti117    10.0   .     S
Er107     Er108    10.0   .     S
Er107     Er190    10.0   .     S
Er107     Ti113    10.0   .     S
Ti109     Er111    10.0   .     S
Ti109     Ti145    10.0   .     S
Er110     Er111    10.0   1_565     S
Er110     Ti112    10.0   .     S
Er110     Er116    10.0   .     S
Er111     Er110    10.0   1_545     S
Er111     Er147    10.0   .     S
Ti112     Ti114    10.0   .     S
Ti113     Er115    10.0   .     S
Ti113     Ti156    10.0   .     S
Ti114     Er116    10.0   .     S
Er115     Er116    10.0   1_554     S
Er115     Er154    10.0   .     S
Er116     Er115    10.0   1_556     S
Ti117     Er119    10.0   .     S
Ti117     Ti161    10.0   .     S
Er118     Er119    10.0   1_556     S
Er118     Ti120    10.0   .     S
Er118     Er124    10.0   .     S
Er119     Er118    10.0   1_554     S
Er119     Er163    10.0   .     S
Ti120     Ti122    10.0   .     S
Ti121     Er123    10.0   .     S
Ti121     Ti168    10.0   .     S
Ti122     Er124    10.0   .     S
Er123     Er124    10.0   1_455     S
Er123     Er170    10.0   .     S
Er124     Er123    10.0   1_655     S
Ti125     Er127    10.0   .     S
Ti125     Ti177    10.0   .     S
Er126     Er127    10.0   1_655     S
Er126     Ti128    10.0   .     S
Er126     Er132    10.0   .     S
Er127     Er126    10.0   1_455     S
Er127     Er179    10.0   .     S
Ti128     Ti130    10.0   .     S
Ti129     Er131    10.0   .     S
Ti129     Ti186    10.0   .     S
Ti130     Er132    10.0   .     S
Er131     Er132    10.0   1_545     S
Er131     Er188    10.0   .     S
Er132     Er131    10.0   1_565     S
Er133     Er134    10.0   .     S
Er133     Er135    10.0   .     S
Er133     Ti180    10.0   .     S
Er133     V175    10.0   .     S
Er134     V176    10.0   .     S
Er135     Er136    10.0   .     S
Er135     Ti149    10.0   .     S
Er135     V150    10.0   .     S
Er136     V151    10.0   .     S
Er137     Er138    10.0   .     S
Er137     Er140    10.0   .     S
Er137     Ti181    10.0   .     S
Er137     V182    10.0   .     S
Er138     V183    10.0   .     S
Er139     Er140    10.0   .     S
Er139     V160    10.0   .     S
Er140     Ti172    10.0   .     S
Er140     V159    10.0   .     S
V141     V142    10.0   .     S
V141     V143    10.0   1_556     S
V141     Er147    10.0   .     S
V142     V144    10.0   1_556     S
V143     V141    10.0   1_554     S
V143     V144    10.0   .     S
V143     Er146    10.0   .     S
V143     Er192    10.0   .     S
V144     V142    10.0   1_554     S
V144     Er191    10.0   .     S
Ti145     Er147    10.0   .     S
Ti145     Ti168    10.0   .     S
Er146     Er147    10.0   1_554     S
Er146     Ti148    10.0   .     S
Er146     Er155    10.0   .     S
Er147     Er146    10.0   1_556     S
Ti148     Er192    10.0   .     S
Ti148     Ti149    10.0   .     S
Ti148     Ti171    10.0   .     S
Ti149     Er155    10.0   .     S
Ti149     Ti180    10.0   .     S
V150     V151    10.0   .     S
V150     V153    10.0   1_545     S
V150     Er155    10.0   .     S
V151     V152    10.0   1_545     S
V152     V151    10.0   1_565     S
V152     V153    10.0   .     S
V153     V150    10.0   1_565     S
V153     Er154    10.0   .     S
Er154     Er155    10.0   1_565     S
Er154     Ti156    10.0   .     S
Er155     Er154    10.0   1_545     S
Ti156     Ti177    10.0   .     S
V157     V158    10.0   .     S
V157     V159    10.0   1_655     S
V157     Er163    10.0   .     S
V158     V160    10.0   1_655     S
V159     V157    10.0   1_455     S
V159     V160    10.0   .     S
V159     Er162    10.0   .     S
V160     V158    10.0   1_455     S
Ti161     Er163    10.0   .     S
Ti161     Ti186    10.0   .     S
Er162     Er163    10.0   1_455     S
Er162     Ti172    10.0   .     S
Er162     Er169    10.0   .     S
Er163     Er162    10.0   1_655     S
V164     V165    10.0   .     S
V164     V167    10.0   1_554     S
V164     Er169    10.0   .     S
V164     Er189    10.0   .     S
V165     V166    10.0   1_554     S
V165     Er190    10.0   .     S
V166     V165    10.0   1_556     S
V166     V167    10.0   .     S
V167     V164    10.0   1_556     S
V167     Er170    10.0   .     S
Ti168     Er170    10.0   .     S
Er169     Er170    10.0   1_554     S
Er169     Ti171    10.0   .     S
Er170     Er169    10.0   1_556     S
Ti171     Er189    10.0   .     S
Ti171     Ti172    10.0   .     S
Ti172     Ti181    10.0   .     S
V173     V174    10.0   .     S
V173     V175    10.0   1_565     S
V173     Er179    10.0   .     S
V174     V176    10.0   1_565     S
V175     V173    10.0   1_545     S
V175     V176    10.0   .     S
V175     Er178    10.0   .     S
V176     V174    10.0   1_545     S
Ti177     Er179    10.0   .     S
Er178     Er179    10.0   1_545     S
Er178     Ti180    10.0   .     S
Er178     Er187    10.0   .     S
Er179     Er178    10.0   1_565     S
Ti180     Ti181    10.0   .     S
Ti181     Er187    10.0   .     S
V182     V183    10.0   .     S
V182     V184    10.0   1_455     S
V182     Er187    10.0   .     S
V183     V185    10.0   1_455     S
V184     V182    10.0   1_655     S
V184     V185    10.0   .     S
V184     Er188    10.0   .     S
V185     V183    10.0   1_655     S
Ti186     Er188    10.0   .     S
Er187     Er188    10.0   1_455     S
Er188     Er187    10.0   1_655     S
Er189     Er190    10.0   .     S
Er189     Er192    10.0   .     S
Er191     Er192    10.0   .     S
