data_ftx
_audit_creation_date              2020-02-04
_audit_creation_method            'Pymatgen'
_symmetry_space_group_name_H-M    'P1'
_symmetry_Int_Tables_number       1
loop_
_symmetry_equiv_pos_as_xyz
  x,y,z
_cell_length_a                    101.4926
_cell_length_b                    101.4926
_cell_length_c                    101.4926
_cell_angle_alpha                 90.0
_cell_angle_beta                 90.0
_cell_angle_gamma                 90.0
loop_
_atom_site_label
_atom_site_type_symbol
_atom_site_fract_x
_atom_site_fract_y
_atom_site_fract_z
V1     V     0.7801   0.6772   0.378
V2     V     0.7199   0.622   0.3228
Er3     Er     0.6914   0.7116   0.3523
Er4     Er     0.8086   0.6477   0.2884
V5     V     0.622   0.3228   0.7199
V6     V     0.6772   0.378   0.7801
Er7     Er     0.7116   0.3523   0.6914
Er8     Er     0.6477   0.2884   0.8086
V9     V     0.5301   0.122   0.4272
V10     V     0.4699   0.1772   0.372
Er11     Er     0.5586   0.2116   0.3977
Er12     Er     0.4414   0.1477   0.4616
V13     V     0.3228   0.7199   0.622
V14     V     0.378   0.7801   0.6772
Er15     Er     0.3523   0.6914   0.7116
Er16     Er     0.2884   0.8086   0.6477
V17     V     0.7199   0.8228   0.622
V18     V     0.7801   0.878   0.6772
Er19     Er     0.6914   0.8523   0.7116
Er20     Er     0.8086   0.7884   0.6477
V21     V     0.5728   0.872   0.7801
V22     V     0.628   0.9272   0.7199
Er23     Er     0.5384   0.8977   0.6914
Er24     Er     0.6023   0.9616   0.8086
V25     V     0.4699   0.878   0.5728
V26     V     0.5301   0.8228   0.628
Er27     Er     0.5586   0.8523   0.5384
Er28     Er     0.4414   0.7884   0.6023
V29     V     0.622   0.9272   0.5301
V30     V     0.6772   0.872   0.4699
Er31     Er     0.7116   0.8977   0.5586
Er32     Er     0.6477   0.9616   0.4414
V33     V     0.628   0.0301   0.3228
V34     V     0.5728   0.9699   0.378
Er35     Er     0.5384   0.0586   0.3523
Er36     Er     0.6023   0.9414   0.2884
V37     V     0.372   0.4699   0.1772
V38     V     0.4272   0.5301   0.122
Er39     Er     0.4616   0.4414   0.1477
Er40     Er     0.3977   0.5586   0.2116
V41     V     0.622   0.7199   0.8228
V42     V     0.6772   0.7801   0.878
Er43     Er     0.7116   0.6914   0.8523
Er44     Er     0.6477   0.8086   0.7884
V45     V     0.378   0.5728   0.9699
V46     V     0.3228   0.628   0.0301
Er47     Er     0.3523   0.5384   0.0586
Er48     Er     0.2884   0.6023   0.9414
V49     V     0.7801   0.5728   0.872
V50     V     0.7199   0.628   0.9272
Er51     Er     0.6914   0.5384   0.8977
Er52     Er     0.8086   0.6023   0.9616
V53     V     0.5301   0.622   0.9272
V54     V     0.4699   0.6772   0.872
Er55     Er     0.5586   0.7116   0.8977
Er56     Er     0.4414   0.6477   0.9616
V57     V     0.628   0.5301   0.8228
V58     V     0.5728   0.4699   0.878
Er59     Er     0.5384   0.5586   0.8523
Er60     Er     0.6023   0.4414   0.7884
V61     V     0.122   0.4272   0.5301
V62     V     0.1772   0.372   0.4699
Er63     Er     0.2116   0.3977   0.5586
Er64     Er     0.1477   0.4616   0.4414
V65     V     0.8228   0.622   0.7199
V66     V     0.878   0.6772   0.7801
Er67     Er     0.8523   0.7116   0.6914
Er68     Er     0.7884   0.6477   0.8086
V69     V     0.872   0.7801   0.5728
V70     V     0.9272   0.7199   0.628
Er71     Er     0.8977   0.6914   0.5384
Er72     Er     0.9616   0.8086   0.6023
V73     V     0.878   0.5728   0.4699
V74     V     0.8228   0.628   0.5301
Er75     Er     0.8523   0.5384   0.5586
Er76     Er     0.7884   0.6023   0.4414
V77     V     0.9272   0.5301   0.622
V78     V     0.872   0.4699   0.6772
Er79     Er     0.8977   0.5586   0.7116
Er80     Er     0.9616   0.4414   0.6477
V81     V     0.0301   0.3228   0.628
V82     V     0.9699   0.378   0.5728
Er83     Er     0.0586   0.3523   0.5384
Er84     Er     0.9414   0.2884   0.6023
V85     V     0.7199   0.128   0.4272
V86     V     0.7801   0.0728   0.372
Er87     Er     0.6914   0.0384   0.3977
Er88     Er     0.8086   0.1023   0.4616
V89     V     0.5301   0.4272   0.622
V90     V     0.4699   0.372   0.6772
Er91     Er     0.5586   0.3977   0.7116
Er92     Er     0.4414   0.4616   0.6477
V93     V     0.3228   0.5301   0.628
V94     V     0.378   0.4699   0.5728
Er95     Er     0.3523   0.5586   0.5384
Er96     Er     0.2884   0.4414   0.6023
V97     V     0.2199   0.3228   0.622
V98     V     0.2801   0.378   0.6772
Er99     Er     0.1914   0.3523   0.7116
Er100     Er     0.3086   0.2884   0.6477
V101     V     0.3228   0.128   0.5301
V102     V     0.378   0.0728   0.4699
Er103     Er     0.2884   0.1023   0.4414
Er104     Er     0.3523   0.0384   0.5586
V105     V     0.4272   0.2199   0.628
V106     V     0.372   0.2801   0.5728
Er107     Er     0.3977   0.1914   0.5384
Er108     Er     0.4616   0.3086   0.6023
V109     V     0.622   0.4272   0.0301
V110     V     0.6772   0.372   0.9699
Er111     Er     0.7116   0.3977   0.0586
Er112     Er     0.6477   0.4616   0.9414
V113     V     0.622   0.0301   0.9272
V114     V     0.6772   0.9699   0.872
Er115     Er     0.6477   0.9414   0.9616
Er116     Er     0.7116   0.0586   0.8977
V117     V     0.7199   0.122   0.8228
V118     V     0.7801   0.1772   0.878
Er119     Er     0.8086   0.1477   0.7884
Er120     Er     0.6914   0.2116   0.8523
V121     V     0.3228   0.122   0.7199
V122     V     0.378   0.1772   0.7801
Er123     Er     0.3523   0.2116   0.6914
Er124     Er     0.2884   0.1477   0.8086
V125     V     0.5728   0.2801   0.872
V126     V     0.628   0.2199   0.9272
Er127     Er     0.5384   0.1914   0.8977
Er128     Er     0.6023   0.3086   0.9616
V129     V     0.5301   0.128   0.8228
V130     V     0.4699   0.0728   0.878
Er131     Er     0.4414   0.1023   0.7884
Er132     Er     0.5586   0.0384   0.8523
V133     V     0.128   0.4272   0.7199
V134     V     0.0728   0.372   0.7801
Er135     Er     0.1023   0.4616   0.8086
Er136     Er     0.0384   0.3977   0.6914
V137     V     0.1772   0.2801   0.878
V138     V     0.122   0.2199   0.8228
Er139     Er     0.1477   0.3086   0.7884
Er140     Er     0.2116   0.1914   0.8523
V141     V     0.9699   0.1772   0.872
V142     V     0.0301   0.122   0.9272
Er143     Er     0.9414   0.1477   0.9616
Er144     Er     0.0586   0.2116   0.8977
V145     V     0.2199   0.128   0.9272
V146     V     0.2801   0.0728   0.872
Er147     Er     0.3086   0.1023   0.9616
Er148     Er     0.1914   0.0384   0.8977
V149     V     0.128   0.0301   0.8228
V150     V     0.0728   0.9699   0.878
Er151     Er     0.1023   0.9414   0.7884
Er152     Er     0.0384   0.0586   0.8523
V153     V     0.5728   0.7801   0.372
V154     V     0.628   0.7199   0.4272
Er155     Er     0.5384   0.6914   0.3977
Er156     Er     0.6023   0.8086   0.4616
V157     V     0.622   0.5301   0.4272
V158     V     0.6772   0.4699   0.372
Er159     Er     0.7116   0.5586   0.3977
Er160     Er     0.6477   0.4414   0.4616
V161     V     0.622   0.2199   0.3228
V162     V     0.6772   0.2801   0.378
Er163     Er     0.7116   0.1914   0.3523
Er164     Er     0.6477   0.3086   0.2884
V165     V     0.5728   0.378   0.4699
V166     V     0.628   0.3228   0.5301
Er167     Er     0.5384   0.3523   0.5586
Er168     Er     0.6023   0.2884   0.4414
V169     V     0.5301   0.3228   0.128
V170     V     0.4699   0.378   0.0728
Er171     Er     0.5586   0.3523   0.0384
Er172     Er     0.4414   0.2884   0.1023
V173     V     0.5728   0.372   0.2801
V174     V     0.628   0.4272   0.2199
Er175     Er     0.5384   0.3977   0.1914
Er176     Er     0.6023   0.4616   0.3086
V177     V     0.4272   0.122   0.0301
V178     V     0.372   0.1772   0.9699
Er179     Er     0.3977   0.2116   0.0586
Er180     Er     0.4616   0.1477   0.9414
V181     V     0.3228   0.2199   0.122
V182     V     0.378   0.2801   0.1772
Er183     Er     0.3523   0.1914   0.2116
Er184     Er     0.2884   0.3086   0.1477
V185     V     0.4272   0.128   0.2199
V186     V     0.372   0.0728   0.2801
Er187     Er     0.3977   0.0384   0.1914
Er188     Er     0.4616   0.1023   0.3086
V189     V     0.3228   0.0301   0.128
V190     V     0.378   0.9699   0.0728
Er191     Er     0.3523   0.0586   0.0384
Er192     Er     0.2884   0.9414   0.1023
V193     V     0.622   0.8228   0.2199
V194     V     0.6772   0.878   0.2801
Er195     Er     0.7116   0.8523   0.1914
Er196     Er     0.6477   0.7884   0.3086
V197     V     0.7801   0.872   0.0728
V198     V     0.7199   0.9272   0.128
Er199     Er     0.8086   0.9616   0.1023
Er200     Er     0.6914   0.8977   0.0384
V201     V     0.4699   0.872   0.1772
V202     V     0.5301   0.9272   0.122
Er203     Er     0.5586   0.8977   0.2116
Er204     Er     0.4414   0.9616   0.1477
V205     V     0.628   0.8228   0.0301
V206     V     0.5728   0.878   0.9699
Er207     Er     0.6023   0.7884   0.9414
Er208     Er     0.5384   0.8523   0.0586
V209     V     0.4272   0.622   0.5301
V210     V     0.372   0.6772   0.4699
Er211     Er     0.3977   0.7116   0.5586
Er212     Er     0.4616   0.6477   0.4414
V213     V     0.3228   0.622   0.2199
V214     V     0.378   0.6772   0.2801
Er215     Er     0.3523   0.7116   0.1914
Er216     Er     0.2884   0.6477   0.3086
V217     V     0.5301   0.628   0.3228
V218     V     0.4699   0.5728   0.378
Er219     Er     0.5586   0.5384   0.3523
Er220     Er     0.4414   0.6023   0.2884
V221     V     0.128   0.5301   0.3228
V222     V     0.0728   0.4699   0.378
Er223     Er     0.1023   0.4414   0.2884
Er224     Er     0.0384   0.5586   0.3523
V225     V     0.2199   0.628   0.4272
V226     V     0.2801   0.5728   0.372
Er227     Er     0.1914   0.5384   0.3977
Er228     Er     0.3086   0.6023   0.4616
V229     V     0.4272   0.7199   0.128
V230     V     0.372   0.7801   0.0728
Er231     Er     0.4616   0.8086   0.1023
Er232     Er     0.3977   0.6914   0.0384
V233     V     0.2801   0.878   0.1772
V234     V     0.2199   0.8228   0.122
Er235     Er     0.1914   0.8523   0.2116
Er236     Er     0.3086   0.7884   0.1477
V237     V     0.1772   0.872   0.9699
V238     V     0.122   0.9272   0.0301
Er239     Er     0.1477   0.9616   0.9414
Er240     Er     0.2116   0.8977   0.0586
V241     V     0.9699   0.878   0.0728
V242     V     0.0301   0.8228   0.128
Er243     Er     0.9414   0.7884   0.1023
Er244     Er     0.0586   0.8523   0.0384
V245     V     0.128   0.9272   0.2199
V246     V     0.0728   0.872   0.2801
Er247     Er     0.1023   0.9616   0.3086
Er248     Er     0.0384   0.8977   0.1914
V249     V     0.4272   0.628   0.7199
V250     V     0.372   0.5728   0.7801
Er251     Er     0.3977   0.5384   0.6914
Er252     Er     0.4616   0.6023   0.8086
V253     V     0.0728   0.7801   0.872
V254     V     0.128   0.7199   0.9272
Er255     Er     0.1023   0.8086   0.9616
Er256     Er     0.0384   0.6914   0.8977
V257     V     0.2199   0.622   0.8228
V258     V     0.2801   0.6772   0.878
Er259     Er     0.1914   0.7116   0.8523
Er260     Er     0.3086   0.6477   0.7884
V261     V     0.1772   0.4699   0.872
V262     V     0.122   0.5301   0.9272
Er263     Er     0.2116   0.5586   0.8977
Er264     Er     0.1477   0.4414   0.9616
V265     V     0.0301   0.628   0.8228
V266     V     0.9699   0.5728   0.878
Er267     Er     0.9414   0.6023   0.7884
Er268     Er     0.0586   0.5384   0.8523
V269     V     0.1772   0.378   0.2801
V270     V     0.122   0.3228   0.2199
Er271     Er     0.2116   0.3523   0.1914
Er272     Er     0.1477   0.2884   0.3086
V273     V     0.0301   0.4272   0.122
V274     V     0.9699   0.372   0.1772
Er275     Er     0.0586   0.3977   0.2116
Er276     Er     0.9414   0.4616   0.1477
V277     V     0.128   0.3228   0.0301
V278     V     0.0728   0.378   0.9699
Er279     Er     0.0384   0.3523   0.0586
Er280     Er     0.1023   0.2884   0.9414
V281     V     0.2199   0.4272   0.128
V282     V     0.2801   0.372   0.0728
Er283     Er     0.3086   0.4616   0.1023
Er284     Er     0.1914   0.3977   0.0384
V285     V     0.4272   0.0301   0.622
V286     V     0.372   0.9699   0.6772
Er287     Er     0.3977   0.0586   0.7116
Er288     Er     0.4616   0.9414   0.6477
V289     V     0.122   0.7199   0.3228
V290     V     0.1772   0.7801   0.378
Er291     Er     0.2116   0.6914   0.3523
Er292     Er     0.1477   0.8086   0.2884
V293     V     0.0301   0.9272   0.622
V294     V     0.9699   0.872   0.6772
Er295     Er     0.9414   0.9616   0.6477
Er296     Er     0.0586   0.8977   0.7116
V297     V     0.122   0.8228   0.7199
V298     V     0.1772   0.878   0.7801
Er299     Er     0.1477   0.7884   0.8086
Er300     Er     0.2116   0.8523   0.6914
V301     V     0.2801   0.872   0.5728
V302     V     0.2199   0.9272   0.628
Er303     Er     0.1914   0.8977   0.5384
Er304     Er     0.3086   0.9616   0.6023
V305     V     0.128   0.8228   0.5301
V306     V     0.0728   0.878   0.4699
Er307     Er     0.1023   0.7884   0.4414
Er308     Er     0.0384   0.8523   0.5586
V309     V     0.0301   0.622   0.4272
V310     V     0.9699   0.6772   0.372
Er311     Er     0.0586   0.7116   0.3977
Er312     Er     0.9414   0.6477   0.4616
V313     V     0.7199   0.3228   0.122
V314     V     0.7801   0.378   0.1772
Er315     Er     0.6914   0.3523   0.2116
Er316     Er     0.8086   0.2884   0.1477
V317     V     0.9272   0.622   0.0301
V318     V     0.872   0.6772   0.9699
Er319     Er     0.9616   0.6477   0.9414
Er320     Er     0.8977   0.7116   0.0586
V321     V     0.8228   0.7199   0.122
V322     V     0.878   0.7801   0.1772
Er323     Er     0.8523   0.6914   0.2116
Er324     Er     0.7884   0.8086   0.1477
V325     V     0.872   0.5728   0.2801
V326     V     0.9272   0.628   0.2199
Er327     Er     0.8977   0.5384   0.1914
Er328     Er     0.9616   0.6023   0.3086
V329     V     0.8228   0.5301   0.128
V330     V     0.878   0.4699   0.0728
Er331     Er     0.7884   0.4414   0.1023
Er332     Er     0.8523   0.5586   0.0384
V333     V     0.872   0.9699   0.1772
V334     V     0.9272   0.0301   0.122
Er335     Er     0.9616   0.9414   0.1477
Er336     Er     0.8977   0.0586   0.2116
V337     V     0.8228   0.122   0.2199
V338     V     0.878   0.1772   0.2801
Er339     Er     0.7884   0.1477   0.3086
Er340     Er     0.8523   0.2116   0.1914
V341     V     0.878   0.0728   0.9699
V342     V     0.8228   0.128   0.0301
Er343     Er     0.7884   0.1023   0.9414
Er344     Er     0.8523   0.0384   0.0586
V345     V     0.9272   0.2199   0.128
V346     V     0.872   0.2801   0.0728
Er347     Er     0.9616   0.3086   0.1023
Er348     Er     0.8977   0.1914   0.0384
V349     V     0.7199   0.4272   0.628
V350     V     0.7801   0.372   0.5728
Er351     Er     0.6914   0.3977   0.5384
Er352     Er     0.8086   0.4616   0.6023
V353     V     0.122   0.0301   0.4272
V354     V     0.1772   0.9699   0.372
Er355     Er     0.2116   0.0586   0.3977
Er356     Er     0.1477   0.9414   0.4616
V357     V     0.872   0.0728   0.7801
V358     V     0.9272   0.128   0.7199
Er359     Er     0.9616   0.1023   0.8086
Er360     Er     0.8977   0.0384   0.6914
V361     V     0.8228   0.2199   0.622
V362     V     0.878   0.2801   0.6772
Er363     Er     0.8523   0.1914   0.7116
Er364     Er     0.7884   0.3086   0.6477
V365     V     0.9272   0.122   0.5301
V366     V     0.872   0.1772   0.4699
Er367     Er     0.8977   0.2116   0.5586
Er368     Er     0.9616   0.1477   0.4414
V369     V     0.8228   0.0301   0.628
V370     V     0.878   0.9699   0.5728
Er371     Er     0.7884   0.9414   0.6023
Er372     Er     0.8523   0.0586   0.5384
V373     V     0.2801   0.1772   0.378
V374     V     0.2199   0.122   0.3228
Er375     Er     0.1914   0.2116   0.3523
Er376     Er     0.3086   0.1477   0.2884
V377     V     0.0301   0.128   0.3228
V378     V     0.9699   0.0728   0.378
Er379     Er     0.9414   0.1023   0.2884
Er380     Er     0.0586   0.0384   0.3523
V381     V     0.128   0.2199   0.4272
V382     V     0.0728   0.2801   0.372
Er383     Er     0.0384   0.1914   0.3977
Er384     Er     0.1023   0.3086   0.4616
loop_
_geom_bond_atom_site_label_1
_geom_bond_atom_site_label_2
_geom_bond_distance
_geom_bond_site_symmetry_2
_ccdc_geom_bond_type
V1     Er4    9.999   .     S
V1     V2    9.999   .     S
V1     Er3    10.0   .     S
V1     Er76    10.0   .     S
V2     Er3    9.999   .     S
V2     Er4    10.0   .     S
V2     Er159    10.0   .     S
Er3     V154    10.0   .     S
Er3     Er196    10.0   .     S
Er4     V325    10.0   .     S
Er4     Er323    10.0   .     S
V5     Er7    9.999   .     S
V5     V6    9.999   .     S
V5     Er8    10.0   .     S
V5     Er91    10.0   .     S
V6     Er8    9.999   .     S
V6     Er7    10.0   .     S
V6     Er60    10.0   .     S
Er7     V349    10.0   .     S
Er7     Er364    10.0   .     S
Er8     V125    10.0   .     S
Er8     Er120    10.0   .     S
V9     Er11    9.999   .     S
V9     V10    9.999   .     S
V9     Er12    10.0   .     S
V9     Er35    10.0   .     S
V10     Er12    9.999   .     S
V10     Er11    10.0   .     S
V10     Er188    10.0   .     S
Er11     V161    10.0   .     S
Er11     Er168    10.0   .     S
Er12     V102    10.0   .     S
Er12     Er107    10.0   .     S
V13     Er15    9.999   .     S
V13     V14    9.999   .     S
V13     Er16    10.0   .     S
V13     Er211    10.0   .     S
V14     Er16    9.999   .     S
V14     Er15    10.0   .     S
V14     Er28    10.0   .     S
Er15     V249    10.0   .     S
Er15     Er260    10.0   .     S
Er16     V301    10.0   .     S
Er16     Er300    10.0   .     S
V17     Er19    9.999   .     S
V17     V18    9.999   .     S
V17     Er20    10.0   .     S
V17     Er31    10.0   .     S
V18     Er20    9.999   .     S
V18     Er19    10.0   .     S
V18     Er371    10.0   .     S
Er19     V22    10.0   .     S
Er19     Er44    10.0   .     S
Er20     V69    10.0   .     S
Er20     Er67    10.0   .     S
V21     Er24    9.999   .     S
V21     V22    9.999   .     S
V21     Er23    10.0   .     S
V21     Er44    10.0   .     S
V22     Er23    9.999   .     S
V22     Er24    10.0   .     S
Er23     V26    10.0   .     S
Er23     Er288    10.0   .     S
Er24     V114    10.0   .     S
Er24     Er132    10.0   1_565     S
V25     Er28    9.999   .     S
V25     V26    9.999   .     S
V25     Er27    10.0   .     S
V25     Er288    10.0   .     S
V26     Er27    9.999   .     S
V26     Er28    10.0   .     S
Er27     V29    10.0   .     S
Er27     Er156    10.0   .     S
Er28     Er211    10.0   .     S
V29     Er31    9.999   .     S
V29     V30    9.999   .     S
V29     Er32    10.0   .     S
V30     Er32    9.999   .     S
V30     Er31    10.0   .     S
V30     Er156    10.0   .     S
Er31     Er371    10.0   .     S
Er32     V34    10.0   .     S
Er32     Er87    10.0   1_565     S
V33     Er35    9.999   .     S
V33     V34    9.999   1_545     S
V33     Er36    10.0   1_545     S
V33     Er87    10.0   .     S
V34     Er36    9.999   .     S
V34     V33    9.999   1_565     S
V34     Er35    10.0   1_565     S
Er35     V34    10.0   1_545     S
Er35     Er188    10.0   .     S
Er36     V33    10.0   1_565     S
Er36     V194    10.0   .     S
Er36     Er203    10.0   .     S
V37     Er39    9.999   .     S
V37     V38    9.999   .     S
V37     Er40    10.0   .     S
V37     Er283    10.0   .     S
V38     Er40    9.999   .     S
V38     Er39    10.0   .     S
V38     Er47    10.0   .     S
Er39     V170    10.0   .     S
Er39     Er175    10.0   .     S
Er40     V213    10.0   .     S
Er40     Er220    10.0   .     S
V41     Er43    9.999   .     S
V41     V42    9.999   .     S
V41     Er44    10.0   .     S
V41     Er55    10.0   .     S
V42     Er44    9.999   .     S
V42     Er43    10.0   .     S
V42     Er207    10.0   .     S
Er43     V50    10.0   .     S
Er43     Er68    10.0   .     S
V45     Er48    9.999   .     S
V45     V46    9.999   1_556     S
V45     Er47    10.0   1_556     S
V45     Er56    10.0   .     S
V46     Er47    9.999   .     S
V46     V45    9.999   1_554     S
V46     Er48    10.0   1_554     S
V46     Er232    10.0   .     S
Er47     V45    10.0   1_554     S
Er47     Er283    10.0   .     S
Er48     V46    10.0   1_556     S
Er48     V258    10.0   .     S
Er48     Er263    10.0   .     S
V49     Er52    9.999   .     S
V49     V50    9.999   .     S
V49     Er51    10.0   .     S
V49     Er68    10.0   .     S
V50     Er51    9.999   .     S
V50     Er52    10.0   .     S
Er51     V57    10.0   .     S
Er51     Er112    10.0   .     S
Er52     V318    10.0   .     S
Er52     Er332    10.0   1_556     S
V53     Er55    9.999   .     S
V53     V54    9.999   .     S
V53     Er56    10.0   .     S
V53     Er59    10.0   .     S
V54     Er56    9.999   .     S
V54     Er55    10.0   .     S
V54     Er252    10.0   .     S
Er55     Er207    10.0   .     S
Er56     Er232    10.0   1_556     S
V57     Er59    9.999   .     S
V57     V58    9.999   .     S
V57     Er60    10.0   .     S
V58     Er60    9.999   .     S
V58     Er59    10.0   .     S
V58     Er112    10.0   .     S
Er59     Er252    10.0   .     S
Er60     Er91    10.0   .     S
V61     Er63    9.999   .     S
V61     V62    9.999   .     S
V61     Er64    10.0   .     S
V61     Er83    10.0   .     S
V62     Er64    9.999   .     S
V62     Er63    10.0   .     S
V62     Er384    10.0   .     S
Er63     V97    10.0   .     S
Er63     Er96    10.0   .     S
Er64     V222    10.0   .     S
Er64     Er227    10.0   .     S
V65     Er67    9.999   .     S
V65     V66    9.999   .     S
V65     Er68    10.0   .     S
V65     Er79    10.0   .     S
V66     Er68    9.999   .     S
V66     Er67    10.0   .     S
V66     Er267    10.0   .     S
Er67     V70    10.0   .     S
V69     Er72    9.999   .     S
V69     V70    9.999   .     S
V69     Er71    10.0   .     S
V70     Er71    9.999   .     S
V70     Er72    10.0   .     S
Er71     V74    10.0   .     S
Er71     Er312    10.0   .     S
Er72     V294    10.0   .     S
Er72     Er308    10.0   1_655     S
V73     Er76    9.999   .     S
V73     V74    9.999   .     S
V73     Er75    10.0   .     S
V73     Er312    10.0   .     S
V74     Er75    9.999   .     S
V74     Er76    10.0   .     S
Er75     V77    10.0   .     S
Er75     Er352    10.0   .     S
Er76     Er159    10.0   .     S
V77     Er79    9.999   .     S
V77     V78    9.999   .     S
V77     Er80    10.0   .     S
V78     Er80    9.999   .     S
V78     Er79    10.0   .     S
V78     Er352    10.0   .     S
Er79     Er267    10.0   .     S
Er80     V82    10.0   .     S
Er80     Er136    10.0   1_655     S
V81     Er83    9.999   .     S
V81     V82    9.999   1_455     S
V81     Er84    10.0   1_455     S
V81     Er136    10.0   .     S
V82     Er84    9.999   .     S
V82     V81    9.999   1_655     S
V82     Er83    10.0   1_655     S
Er83     V82    10.0   1_455     S
Er83     Er384    10.0   .     S
Er84     V81    10.0   1_655     S
Er84     V362    10.0   .     S
Er84     Er367    10.0   .     S
V85     Er87    9.999   .     S
V85     V86    9.999   .     S
V85     Er88    10.0   .     S
V85     Er163    10.0   .     S
V86     Er88    9.999   .     S
V86     Er87    10.0   .     S
V86     Er339    10.0   .     S
Er87     Er32    10.0   1_545     S
Er88     V366    10.0   .     S
Er88     Er372    10.0   .     S
V89     Er91    9.999   .     S
V89     V90    9.999   .     S
V89     Er92    10.0   .     S
V89     Er167    10.0   .     S
V90     Er92    9.999   .     S
V90     Er91    10.0   .     S
V90     Er108    10.0   .     S
Er92     V94    10.0   .     S
Er92     Er251    10.0   .     S
V93     Er95    9.999   .     S
V93     V94    9.999   .     S
V93     Er96    10.0   .     S
V93     Er251    10.0   .     S
V94     Er96    9.999   .     S
V94     Er95    10.0   .     S
Er95     V209    10.0   .     S
Er95     Er228    10.0   .     S
Er96     V98    10.0   .     S
V97     Er99    9.999   .     S
V97     V98    9.999   .     S
V97     Er100    10.0   .     S
V98     Er100    9.999   .     S
V98     Er99    10.0   .     S
Er99     V133    10.0   .     S
Er99     Er139    10.0   .     S
Er100     V106    10.0   .     S
Er100     Er123    10.0   .     S
V101     Er104    9.999   .     S
V101     V102    9.999   .     S
V101     Er103    10.0   .     S
V101     Er107    10.0   .     S
V102     Er103    9.999   .     S
V102     Er104    10.0   .     S
Er103     V373    10.0   .     S
Er103     Er355    10.0   .     S
Er104     V285    10.0   .     S
Er104     Er304    10.0   1_545     S
V105     Er107    9.999   .     S
V105     V106    9.999   .     S
V105     Er108    10.0   .     S
V105     Er123    10.0   .     S
V106     Er108    9.999   .     S
V106     Er107    10.0   .     S
Er108     Er167    10.0   .     S
V109     Er111    9.999   .     S
V109     V110    9.999   1_554     S
V109     Er112    10.0   1_554     S
V109     Er171    10.0   .     S
V110     Er112    9.999   .     S
V110     V109    9.999   1_556     S
V110     Er111    10.0   1_556     S
V110     Er128    10.0   .     S
Er111     V110    10.0   1_554     S
Er111     V313    10.0   .     S
Er111     Er331    10.0   .     S
Er112     V109    10.0   1_556     S
V113     Er116    9.999   .     S
V113     V114    9.999   1_545     S
V113     Er115    10.0   1_545     S
V113     Er132    10.0   .     S
V114     Er115    9.999   .     S
V114     V113    9.999   1_565     S
V114     Er116    10.0   1_565     S
Er115     V113    10.0   1_565     S
Er115     V206    10.0   .     S
Er115     Er200    10.0   1_556     S
Er116     V114    10.0   1_545     S
Er116     V117    10.0   .     S
Er116     Er343    10.0   .     S
V117     Er120    9.999   .     S
V117     V118    9.999   .     S
V117     Er119    10.0   .     S
V118     Er119    9.999   .     S
V118     Er120    10.0   .     S
V118     Er343    10.0   .     S
Er119     V357    10.0   .     S
Er119     Er363    10.0   .     S
Er120     V126    10.0   .     S
V121     Er123    9.999   .     S
V121     V122    9.999   .     S
V121     Er124    10.0   .     S
V121     Er287    10.0   .     S
V122     Er124    9.999   .     S
V122     Er123    10.0   .     S
V122     Er131    10.0   .     S
Er124     V146    10.0   .     S
Er124     Er140    10.0   .     S
V125     Er128    9.999   .     S
V125     V126    9.999   .     S
V125     Er127    10.0   .     S
V126     Er127    9.999   .     S
V126     Er128    10.0   .     S
Er127     V129    10.0   .     S
Er127     Er180    10.0   .     S
Er128     Er171    10.0   1_556     S
V129     Er132    9.999   .     S
V129     V130    9.999   .     S
V129     Er131    10.0   .     S
V130     Er131    9.999   .     S
V130     Er132    10.0   .     S
V130     Er180    10.0   .     S
Er131     Er287    10.0   .     S
Er132     Er24    10.0   1_545     S
V133     Er136    9.999   .     S
V133     V134    9.999   .     S
V133     Er135    10.0   .     S
V134     Er135    9.999   .     S
V134     Er136    10.0   .     S
V134     Er139    10.0   .     S
Er135     V261    10.0   .     S
Er135     Er268    10.0   .     S
Er136     Er80    10.0   1_455     S
V137     Er139    9.999   .     S
V137     V138    9.999   .     S
V137     Er140    10.0   .     S
V137     Er280    10.0   .     S
V138     Er140    9.999   .     S
V138     Er139    10.0   .     S
V138     Er144    10.0   .     S
Er140     V145    10.0   .     S
V141     Er143    9.999   .     S
V141     V142    9.999   1_655     S
V141     Er144    10.0   1_655     S
V141     Er359    10.0   .     S
V142     Er144    9.999   .     S
V142     V141    9.999   1_455     S
V142     Er143    10.0   1_455     S
V142     Er152    10.0   .     S
Er143     V142    10.0   1_655     S
Er143     V341    10.0   .     S
Er143     Er348    10.0   1_556     S
Er144     V141    10.0   1_455     S
Er144     Er280    10.0   .     S
V145     Er148    9.999   .     S
V145     V146    9.999   .     S
V145     Er147    10.0   .     S
V146     Er147    9.999   .     S
V146     Er148    10.0   .     S
Er147     V178    10.0   .     S
Er147     Er191    10.0   1_556     S
Er148     V149    10.0   .     S
Er148     Er239    10.0   1_545     S
V149     Er152    9.999   .     S
V149     V150    9.999   1_545     S
V149     Er151    10.0   1_545     S
V150     Er151    9.999   .     S
V150     V149    9.999   1_565     S
V150     Er152    10.0   1_565     S
V150     Er239    10.0   .     S
Er151     V149    10.0   1_565     S
Er151     V298    10.0   .     S
Er151     Er296    10.0   .     S
Er152     V150    10.0   1_545     S
Er152     Er359    10.0   1_455     S
V153     Er156    9.999   .     S
V153     V154    9.999   .     S
V153     Er155    10.0   .     S
V153     Er196    10.0   .     S
V154     Er155    9.999   .     S
V154     Er156    10.0   .     S
Er155     V217    10.0   .     S
Er155     Er212    10.0   .     S
V157     Er159    9.999   .     S
V157     V158    9.999   .     S
V157     Er160    10.0   .     S
V157     Er219    10.0   .     S
V158     Er160    9.999   .     S
V158     Er159    10.0   .     S
V158     Er176    10.0   .     S
Er160     V165    10.0   .     S
Er160     Er351    10.0   .     S
V161     Er163    9.999   .     S
V161     V162    9.999   .     S
V161     Er164    10.0   .     S
V162     Er164    9.999   .     S
V162     Er163    10.0   .     S
V162     Er168    10.0   .     S
Er163     Er339    10.0   .     S
Er164     V173    10.0   .     S
Er164     Er315    10.0   .     S
V165     Er168    9.999   .     S
V165     V166    9.999   .     S
V165     Er167    10.0   .     S
V166     Er167    9.999   .     S
V166     Er168    10.0   .     S
V166     Er351    10.0   .     S
V169     Er171    9.999   .     S
V169     V170    9.999   .     S
V169     Er172    10.0   .     S
V169     Er175    10.0   .     S
V170     Er172    9.999   .     S
V170     Er171    10.0   .     S
Er171     Er128    10.0   1_554     S
Er172     V182    10.0   .     S
Er172     Er179    10.0   .     S
V173     Er176    9.999   .     S
V173     V174    9.999   .     S
V173     Er175    10.0   .     S
V174     Er175    9.999   .     S
V174     Er176    10.0   .     S
V174     Er315    10.0   .     S
Er176     Er219    10.0   .     S
V177     Er179    9.999   .     S
V177     V178    9.999   1_554     S
V177     Er180    10.0   1_554     S
V177     Er191    10.0   .     S
V178     Er180    9.999   .     S
V178     V177    9.999   1_556     S
V178     Er179    10.0   1_556     S
Er179     V178    10.0   1_554     S
Er179     V181    10.0   .     S
Er180     V177    10.0   1_556     S
V181     Er183    9.999   .     S
V181     V182    9.999   .     S
V181     Er184    10.0   .     S
V182     Er184    9.999   .     S
V182     Er183    10.0   .     S
Er183     V185    10.0   .     S
Er183     Er376    10.0   .     S
Er184     V282    10.0   .     S
Er184     Er271    10.0   .     S
V185     Er187    9.999   .     S
V185     V186    9.999   .     S
V185     Er188    10.0   .     S
V186     Er188    9.999   .     S
V186     Er187    10.0   .     S
V186     Er376    10.0   .     S
Er187     V189    10.0   .     S
Er187     Er204    10.0   1_545     S
V189     Er191    9.999   .     S
V189     V190    9.999   1_545     S
V189     Er192    10.0   1_545     S
V190     Er192    9.999   .     S
V190     V189    9.999   1_565     S
V190     Er191    10.0   1_565     S
V190     Er204    10.0   .     S
Er191     V190    10.0   1_545     S
Er191     Er147    10.0   1_554     S
Er192     V189    10.0   1_565     S
Er192     V233    10.0   .     S
Er192     Er240    10.0   .     S
V193     Er195    9.999   .     S
V193     V194    9.999   .     S
V193     Er196    10.0   .     S
V193     Er203    10.0   .     S
V194     Er196    9.999   .     S
V194     Er195    10.0   .     S
Er195     V198    10.0   .     S
Er195     Er324    10.0   .     S
V197     Er199    9.999   .     S
V197     V198    9.999   .     S
V197     Er200    10.0   .     S
V197     Er324    10.0   .     S
V198     Er200    9.999   .     S
V198     Er199    10.0   .     S
Er199     V333    10.0   .     S
Er199     Er344    10.0   1_565     S
Er200     V205    10.0   .     S
Er200     Er115    10.0   1_554     S
V201     Er204    9.999   .     S
V201     V202    9.999   .     S
V201     Er203    10.0   .     S
V201     Er231    10.0   .     S
V202     Er203    9.999   .     S
V202     Er204    10.0   .     S
V202     Er208    10.0   .     S
Er204     Er187    10.0   1_565     S
V205     Er208    9.999   .     S
V205     V206    9.999   1_554     S
V205     Er207    10.0   1_554     S
V206     Er207    9.999   .     S
V206     V205    9.999   1_556     S
V206     Er208    10.0   1_556     S
Er207     V205    10.0   1_556     S
Er208     V206    10.0   1_554     S
Er208     Er231    10.0   .     S
V209     Er211    9.999   .     S
V209     V210    9.999   .     S
V209     Er212    10.0   .     S
V210     Er212    9.999   .     S
V210     Er211    10.0   .     S
V210     Er228    10.0   .     S
Er212     V218    10.0   .     S
V213     Er215    9.999   .     S
V213     V214    9.999   .     S
V213     Er216    10.0   .     S
V214     Er216    9.999   .     S
V214     Er215    10.0   .     S
V214     Er220    10.0   .     S
Er215     V229    10.0   .     S
Er215     Er236    10.0   .     S
Er216     V226    10.0   .     S
Er216     Er291    10.0   .     S
V217     Er219    9.999   .     S
V217     V218    9.999   .     S
V217     Er220    10.0   .     S
V218     Er220    9.999   .     S
V218     Er219    10.0   .     S
V221     Er224    9.999   .     S
V221     V222    9.999   .     S
V221     Er223    10.0   .     S
V221     Er227    10.0   .     S
V222     Er223    9.999   .     S
V222     Er224    10.0   .     S
Er223     V269    10.0   .     S
Er223     Er275    10.0   .     S
Er224     V309    10.0   .     S
Er224     Er328    10.0   1_455     S
V225     Er227    9.999   .     S
V225     V226    9.999   .     S
V225     Er228    10.0   .     S
V225     Er291    10.0   .     S
V226     Er228    9.999   .     S
V226     Er227    10.0   .     S
V229     Er232    9.999   .     S
V229     V230    9.999   .     S
V229     Er231    10.0   .     S
V230     Er231    9.999   .     S
V230     Er232    10.0   .     S
V230     Er236    10.0   .     S
Er232     Er56    10.0   1_554     S
V233     Er236    9.999   .     S
V233     V234    9.999   .     S
V233     Er235    10.0   .     S
V234     Er235    9.999   .     S
V234     Er236    10.0   .     S
V234     Er240    10.0   .     S
Er235     V245    10.0   .     S
Er235     Er292    10.0   .     S
V237     Er239    9.999   .     S
V237     V238    9.999   1_556     S
V237     Er240    10.0   1_556     S
V237     Er255    10.0   .     S
V238     Er240    9.999   .     S
V238     V237    9.999   1_554     S
V238     Er239    10.0   1_554     S
V238     Er244    10.0   .     S
Er239     V238    10.0   1_556     S
Er239     Er148    10.0   1_565     S
Er240     V237    10.0   1_554     S
V241     Er243    9.999   .     S
V241     V242    9.999   1_655     S
V241     Er244    10.0   1_655     S
V241     Er335    10.0   .     S
V242     Er244    9.999   .     S
V242     V241    9.999   1_455     S
V242     Er243    10.0   1_455     S
V242     Er248    10.0   .     S
Er243     V242    10.0   1_655     S
Er243     V322    10.0   .     S
Er243     Er320    10.0   .     S
Er244     V241    10.0   1_455     S
Er244     Er255    10.0   1_554     S
V245     Er248    9.999   .     S
V245     V246    9.999   .     S
V245     Er247    10.0   .     S
V246     Er247    9.999   .     S
V246     Er248    10.0   .     S
V246     Er292    10.0   .     S
Er247     V354    10.0   .     S
Er247     Er380    10.0   1_565     S
Er248     Er335    10.0   1_455     S
V249     Er251    9.999   .     S
V249     V250    9.999   .     S
V249     Er252    10.0   .     S
V250     Er252    9.999   .     S
V250     Er251    10.0   .     S
V250     Er260    10.0   .     S
V253     Er255    9.999   .     S
V253     V254    9.999   .     S
V253     Er256    10.0   .     S
V253     Er299    10.0   .     S
V254     Er256    9.999   .     S
V254     Er255    10.0   .     S
V254     Er259    10.0   .     S
Er255     Er244    10.0   1_556     S
Er256     V265    10.0   .     S
Er256     Er319    10.0   1_455     S
V257     Er259    9.999   .     S
V257     V258    9.999   .     S
V257     Er260    10.0   .     S
V257     Er263    10.0   .     S
V258     Er260    9.999   .     S
V258     Er259    10.0   .     S
Er259     Er299    10.0   .     S
V261     Er264    9.999   .     S
V261     V262    9.999   .     S
V261     Er263    10.0   .     S
V262     Er263    9.999   .     S
V262     Er264    10.0   .     S
V262     Er268    10.0   .     S
Er264     V278    10.0   .     S
Er264     Er284    10.0   1_556     S
V265     Er268    9.999   .     S
V265     V266    9.999   1_455     S
V265     Er267    10.0   1_455     S
V266     Er267    9.999   .     S
V266     V265    9.999   1_655     S
V266     Er268    10.0   1_655     S
V266     Er319    10.0   .     S
Er267     V265    10.0   1_655     S
Er268     V266    10.0   1_455     S
V269     Er272    9.999   .     S
V269     V270    9.999   .     S
V269     Er271    10.0   .     S
V270     Er271    9.999   .     S
V270     Er272    10.0   .     S
V270     Er275    10.0   .     S
Er271     V281    10.0   .     S
Er272     V382    10.0   .     S
Er272     Er375    10.0   .     S
V273     Er275    9.999   .     S
V273     V274    9.999   1_455     S
V273     Er276    10.0   1_455     S
V273     Er279    10.0   .     S
V274     Er276    9.999   .     S
V274     V273    9.999   1_655     S
V274     Er275    10.0   1_655     S
V274     Er347    10.0   .     S
Er275     V274    10.0   1_455     S
Er276     V273    10.0   1_655     S
Er276     V330    10.0   .     S
Er276     Er327    10.0   .     S
V277     Er279    9.999   .     S
V277     V278    9.999   1_554     S
V277     Er280    10.0   1_554     S
V277     Er284    10.0   .     S
V278     Er280    9.999   .     S
V278     V277    9.999   1_556     S
V278     Er279    10.0   1_556     S
Er279     V278    10.0   1_554     S
Er279     Er347    10.0   1_455     S
Er280     V277    10.0   1_556     S
V281     Er284    9.999   .     S
V281     V282    9.999   .     S
V281     Er283    10.0   .     S
V282     Er283    9.999   .     S
V282     Er284    10.0   .     S
Er284     Er264    10.0   1_554     S
V285     Er287    9.999   .     S
V285     V286    9.999   1_545     S
V285     Er288    10.0   1_545     S
V286     Er288    9.999   .     S
V286     V285    9.999   1_565     S
V286     Er287    10.0   1_565     S
V286     Er304    10.0   .     S
Er287     V286    10.0   1_545     S
Er288     V285    10.0   1_565     S
V289     Er291    9.999   .     S
V289     V290    9.999   .     S
V289     Er292    10.0   .     S
V289     Er311    10.0   .     S
V290     Er292    9.999   .     S
V290     Er291    10.0   .     S
V290     Er307    10.0   .     S
V293     Er296    9.999   .     S
V293     V294    9.999   1_455     S
V293     Er295    10.0   1_455     S
V293     Er308    10.0   .     S
V294     Er295    9.999   .     S
V294     V293    9.999   1_655     S
V294     Er296    10.0   1_655     S
Er295     V293    10.0   1_655     S
Er295     V370    10.0   .     S
Er295     Er360    10.0   1_565     S
Er296     V294    10.0   1_455     S
Er296     V297    10.0   .     S
V297     Er300    9.999   .     S
V297     V298    9.999   .     S
V297     Er299    10.0   .     S
V298     Er299    9.999   .     S
V298     Er300    10.0   .     S
Er300     V302    10.0   .     S
V301     Er304    9.999   .     S
V301     V302    9.999   .     S
V301     Er303    10.0   .     S
V302     Er303    9.999   .     S
V302     Er304    10.0   .     S
Er303     V305    10.0   .     S
Er303     Er356    10.0   .     S
Er304     Er104    10.0   1_565     S
V305     Er308    9.999   .     S
V305     V306    9.999   .     S
V305     Er307    10.0   .     S
V306     Er307    9.999   .     S
V306     Er308    10.0   .     S
V306     Er356    10.0   .     S
Er307     Er311    10.0   .     S
Er308     Er72    10.0   1_455     S
V309     Er311    9.999   .     S
V309     V310    9.999   1_455     S
V309     Er312    10.0   1_455     S
V310     Er312    9.999   .     S
V310     V309    9.999   1_655     S
V310     Er311    10.0   1_655     S
V310     Er328    10.0   .     S
Er311     V310    10.0   1_455     S
Er312     V309    10.0   1_655     S
V313     Er315    9.999   .     S
V313     V314    9.999   .     S
V313     Er316    10.0   .     S
V314     Er316    9.999   .     S
V314     Er315    10.0   .     S
V314     Er331    10.0   .     S
Er316     V346    10.0   .     S
Er316     Er340    10.0   .     S
V317     Er320    9.999   .     S
V317     V318    9.999   1_554     S
V317     Er319    10.0   1_554     S
V317     Er332    10.0   .     S
V318     Er319    9.999   .     S
V318     V317    9.999   1_556     S
V318     Er320    10.0   1_556     S
Er319     V317    10.0   1_556     S
Er319     Er256    10.0   1_655     S
Er320     V318    10.0   1_554     S
Er320     V321    10.0   .     S
V321     Er323    9.999   .     S
V321     V322    9.999   .     S
V321     Er324    10.0   .     S
V322     Er324    9.999   .     S
V322     Er323    10.0   .     S
Er323     V326    10.0   .     S
V325     Er328    9.999   .     S
V325     V326    9.999   .     S
V325     Er327    10.0   .     S
V326     Er327    9.999   .     S
V326     Er328    10.0   .     S
Er327     V329    10.0   .     S
Er328     Er224    10.0   1_655     S
V329     Er332    9.999   .     S
V329     V330    9.999   .     S
V329     Er331    10.0   .     S
V330     Er331    9.999   .     S
V330     Er332    10.0   .     S
Er332     Er52    10.0   1_554     S
V333     Er335    9.999   .     S
V333     V334    9.999   1_565     S
V333     Er336    10.0   1_565     S
V334     Er336    9.999   .     S
V334     V333    9.999   1_545     S
V334     Er335    10.0   1_545     S
V334     Er344    10.0   .     S
Er335     V334    10.0   1_565     S
Er335     Er248    10.0   1_655     S
Er336     V333    10.0   1_545     S
Er336     V337    10.0   .     S
Er336     Er379    10.0   .     S
V337     Er340    9.999   .     S
V337     V338    9.999   .     S
V337     Er339    10.0   .     S
V338     Er339    9.999   .     S
V338     Er340    10.0   .     S
V338     Er379    10.0   .     S
Er340     V345    10.0   .     S
V341     Er343    9.999   .     S
V341     V342    9.999   1_556     S
V341     Er344    10.0   1_556     S
V342     Er344    9.999   .     S
V342     V341    9.999   1_554     S
V342     Er343    10.0   1_554     S
V342     Er348    10.0   .     S
Er343     V342    10.0   1_556     S
Er344     V341    10.0   1_554     S
Er344     Er199    10.0   1_545     S
V345     Er348    9.999   .     S
V345     V346    9.999   .     S
V345     Er347    10.0   .     S
V346     Er347    9.999   .     S
V346     Er348    10.0   .     S
Er347     Er279    10.0   1_655     S
Er348     Er143    10.0   1_554     S
V349     Er351    9.999   .     S
V349     V350    9.999   .     S
V349     Er352    10.0   .     S
V350     Er352    9.999   .     S
V350     Er351    10.0   .     S
V350     Er364    10.0   .     S
V353     Er355    9.999   .     S
V353     V354    9.999   1_545     S
V353     Er356    10.0   1_545     S
V353     Er380    10.0   .     S
V354     Er356    9.999   .     S
V354     V353    9.999   1_565     S
V354     Er355    10.0   1_565     S
Er355     V354    10.0   1_545     S
Er355     V374    10.0   .     S
Er356     V353    10.0   1_565     S
V357     Er359    9.999   .     S
V357     V358    9.999   .     S
V357     Er360    10.0   .     S
V358     Er360    9.999   .     S
V358     Er359    10.0   .     S
V358     Er363    10.0   .     S
Er359     Er152    10.0   1_655     S
Er360     V369    10.0   .     S
Er360     Er295    10.0   1_545     S
V361     Er363    9.999   .     S
V361     V362    9.999   .     S
V361     Er364    10.0   .     S
V361     Er367    10.0   .     S
V362     Er364    9.999   .     S
V362     Er363    10.0   .     S
V365     Er367    9.999   .     S
V365     V366    9.999   .     S
V365     Er368    10.0   .     S
V365     Er372    10.0   .     S
V366     Er368    9.999   .     S
V366     Er367    10.0   .     S
Er368     V378    10.0   .     S
Er368     Er383    10.0   1_655     S
V369     Er372    9.999   .     S
V369     V370    9.999   1_545     S
V369     Er371    10.0   1_545     S
V370     Er371    9.999   .     S
V370     V369    9.999   1_565     S
V370     Er372    10.0   1_565     S
Er371     V369    10.0   1_565     S
Er372     V370    10.0   1_545     S
V373     Er376    9.999   .     S
V373     V374    9.999   .     S
V373     Er375    10.0   .     S
V374     Er375    9.999   .     S
V374     Er376    10.0   .     S
Er375     V381    10.0   .     S
V377     Er380    9.999   .     S
V377     V378    9.999   1_455     S
V377     Er379    10.0   1_455     S
V377     Er383    10.0   .     S
V378     Er379    9.999   .     S
V378     V377    9.999   1_655     S
V378     Er380    10.0   1_655     S
Er379     V377    10.0   1_655     S
Er380     V378    10.0   1_455     S
Er380     Er247    10.0   1_545     S
V381     Er383    9.999   .     S
V381     V382    9.999   .     S
V381     Er384    10.0   .     S
V382     Er384    9.999   .     S
V382     Er383    10.0   .     S
Er383     Er368    10.0   1_455     S
