data_ftz
_audit_creation_date              2020-02-04
_audit_creation_method            'Pymatgen'
_symmetry_space_group_name_H-M    'P1'
_symmetry_Int_Tables_number       1
loop_
_symmetry_equiv_pos_as_xyz
  x,y,z
_cell_length_a                    66.602
_cell_length_b                    66.602
_cell_length_c                    66.602
_cell_angle_alpha                 90.0
_cell_angle_beta                 90.0
_cell_angle_gamma                 90.0
loop_
_atom_site_label
_atom_site_type_symbol
_atom_site_fract_x
_atom_site_fract_y
_atom_site_fract_z
Er1     Er     0.0147   0.775   0.1208
Er2     Er     0.9853   0.8792   0.225
Er3     Er     0.775   0.0147   0.1208
Er4     Er     0.8792   0.9853   0.225
Er5     Er     0.1208   0.775   0.0147
Er6     Er     0.225   0.8792   0.9853
Er7     Er     0.1208   0.0147   0.775
Er8     Er     0.225   0.9853   0.8792
Er9     Er     0.775   0.1208   0.0147
Er10     Er     0.8792   0.225   0.9853
Er11     Er     0.0147   0.1208   0.775
Er12     Er     0.9853   0.225   0.8792
V13     V     0.3118   0.6013   0.7074
V14     V     0.1882   0.6013   0.7926
V15     V     0.1882   0.7926   0.6012
V16     V     0.3118   0.7074   0.6012
V17     V     0.3118   0.8988   0.7926
V18     V     0.1882   0.8988   0.7074
V19     V     0.3118   0.7926   0.8988
V20     V     0.1882   0.7074   0.8988
V21     V     0.6013   0.7074   0.3118
V22     V     0.6013   0.7926   0.1882
V23     V     0.7926   0.6012   0.1882
V24     V     0.7074   0.6012   0.3118
V25     V     0.8988   0.7926   0.3118
V26     V     0.8988   0.7074   0.1882
V27     V     0.7926   0.8988   0.3118
V28     V     0.7074   0.8988   0.1882
V29     V     0.7074   0.3118   0.6013
V30     V     0.7926   0.1882   0.6013
V31     V     0.6012   0.1882   0.7926
V32     V     0.6012   0.3118   0.7074
V33     V     0.7926   0.3118   0.8988
V34     V     0.7074   0.1882   0.8988
V35     V     0.8988   0.3118   0.7926
V36     V     0.8988   0.1882   0.7074
Er37     Er     0.1208   0.725   0.4853
Er38     Er     0.225   0.6208   0.5147
Er39     Er     0.1208   0.4853   0.725
Er40     Er     0.225   0.5147   0.6208
Er41     Er     0.0147   0.725   0.3792
Er42     Er     0.9853   0.6208   0.275
Er43     Er     0.775   0.4853   0.3792
Er44     Er     0.8792   0.5147   0.275
Er45     Er     0.775   0.3792   0.4853
Er46     Er     0.8792   0.275   0.5147
Er47     Er     0.0147   0.3792   0.725
Er48     Er     0.9853   0.275   0.6208
V49     V     0.3988   0.2926   0.6882
V50     V     0.3988   0.2074   0.8118
V51     V     0.2074   0.3988   0.8118
V52     V     0.2926   0.3988   0.6882
V53     V     0.2074   0.1013   0.6882
V54     V     0.2926   0.1013   0.8118
V55     V     0.1013   0.2926   0.8118
V56     V     0.1013   0.2074   0.6882
V57     V     0.2926   0.6882   0.3988
V58     V     0.2074   0.8118   0.3988
V59     V     0.1013   0.6882   0.2074
V60     V     0.1013   0.8118   0.2926
V61     V     0.2074   0.6882   0.1013
V62     V     0.2926   0.8118   0.1013
V63     V     0.3988   0.8118   0.2074
V64     V     0.3988   0.6882   0.2926
Er65     Er     0.3792   0.725   0.0147
Er66     Er     0.275   0.6208   0.9853
Er67     Er     0.3792   0.4853   0.775
Er68     Er     0.275   0.5147   0.8792
Er69     Er     0.4853   0.3792   0.775
Er70     Er     0.5147   0.275   0.8792
Er71     Er     0.725   0.3792   0.0147
Er72     Er     0.6208   0.275   0.9853
Er73     Er     0.4853   0.725   0.1208
Er74     Er     0.5147   0.6208   0.225
Er75     Er     0.725   0.4853   0.1208
Er76     Er     0.6208   0.5147   0.225
Er77     Er     0.725   0.0147   0.3792
Er78     Er     0.6208   0.9853   0.275
Er79     Er     0.4853   0.775   0.3792
Er80     Er     0.5147   0.8792   0.275
Er81     Er     0.3792   0.775   0.4853
Er82     Er     0.275   0.8792   0.5147
Er83     Er     0.3792   0.0147   0.725
Er84     Er     0.275   0.9853   0.6208
Er85     Er     0.725   0.1208   0.4853
Er86     Er     0.6208   0.225   0.5147
Er87     Er     0.4853   0.1208   0.725
Er88     Er     0.5147   0.225   0.6208
V89     V     0.6882   0.3988   0.2926
V90     V     0.8118   0.3988   0.2074
V91     V     0.6882   0.2074   0.1013
V92     V     0.8118   0.2926   0.1013
V93     V     0.6882   0.1013   0.2074
V94     V     0.8118   0.1013   0.2926
V95     V     0.8118   0.2074   0.3988
V96     V     0.6882   0.2926   0.3988
loop_
_geom_bond_atom_site_label_1
_geom_bond_atom_site_label_2
_geom_bond_distance
_geom_bond_site_symmetry_2
_ccdc_geom_bond_type
Er1     Er2    10.0   1_455     S
Er1     Er5    10.0   .     S
Er1     V26    10.0   1_455     S
Er1     V59    10.0   .     S
Er2     Er1    10.0   1_655     S
Er2     Er4    10.0   .     S
Er2     V25    10.0   .     S
Er2     V60    10.0   1_655     S
Er3     Er4    10.0   1_545     S
Er3     Er9    10.0   .     S
Er3     V28    10.0   1_545     S
Er3     V93    10.0   .     S
Er4     Er3    10.0   1_565     S
Er4     V27    10.0   .     S
Er4     V94    10.0   1_565     S
Er5     Er6    10.0   1_554     S
Er5     V20    10.0   1_554     S
Er5     V61    10.0   .     S
Er6     Er5    10.0   1_556     S
Er6     Er8    10.0   .     S
Er6     V19    10.0   .     S
Er6     V62    10.0   1_556     S
Er7     Er8    10.0   1_545     S
Er7     Er11    10.0   .     S
Er7     V18    10.0   1_545     S
Er7     V53    10.0   .     S
Er8     Er7    10.0   1_565     S
Er8     V17    10.0   .     S
Er8     V54    10.0   1_565     S
Er9     Er10    10.0   1_554     S
Er9     V34    10.0   1_554     S
Er9     V91    10.0   .     S
Er10     Er9    10.0   1_556     S
Er10     Er12    10.0   .     S
Er10     V33    10.0   .     S
Er10     V92    10.0   1_556     S
Er11     Er12    10.0   1_455     S
Er11     V36    10.0   1_455     S
Er11     V56    10.0   .     S
Er12     Er11    10.0   1_655     S
Er12     V35    10.0   .     S
Er12     V55    10.0   1_655     S
V13     Er67    10.0   .     S
V13     Er40    10.0   .     S
V13     V14    10.0   .     S
V13     V16    10.0   .     S
V14     Er39    10.0   .     S
V14     Er68    10.0   .     S
V14     V20    10.0   .     S
V15     Er37    10.0   .     S
V15     Er82    10.0   .     S
V15     V16    10.0   .     S
V15     V18    10.0   .     S
V16     Er81    10.0   .     S
V16     Er38    10.0   .     S
V17     Er83    10.0   1_565     S
V17     V18    10.0   .     S
V17     V19    10.0   .     S
V18     Er7    10.0   1_565     S
V18     Er84    10.0   .     S
V19     Er65    10.0   1_556     S
V19     V20    10.0   .     S
V20     Er5    10.0   1_556     S
V20     Er66    10.0   .     S
V21     Er79    10.0   .     S
V21     Er74    10.0   .     S
V21     V22    10.0   .     S
V21     V24    10.0   .     S
V22     Er73    10.0   .     S
V22     Er80    10.0   .     S
V22     V28    10.0   .     S
V23     Er75    10.0   .     S
V23     Er44    10.0   .     S
V23     V24    10.0   .     S
V23     V26    10.0   .     S
V24     Er43    10.0   .     S
V24     Er76    10.0   .     S
V25     Er41    10.0   1_655     S
V25     V26    10.0   .     S
V25     V27    10.0   .     S
V26     Er1    10.0   1_655     S
V26     Er42    10.0   .     S
V27     Er77    10.0   1_565     S
V27     V28    10.0   .     S
V28     Er3    10.0   1_565     S
V28     Er78    10.0   .     S
V29     Er45    10.0   .     S
V29     Er86    10.0   .     S
V29     V30    10.0   .     S
V29     V32    10.0   .     S
V30     Er85    10.0   .     S
V30     Er46    10.0   .     S
V30     V36    10.0   .     S
V31     Er87    10.0   .     S
V31     Er70    10.0   .     S
V31     V32    10.0   .     S
V31     V34    10.0   .     S
V32     Er69    10.0   .     S
V32     Er88    10.0   .     S
V33     Er71    10.0   1_556     S
V33     V34    10.0   .     S
V33     V35    10.0   .     S
V34     Er9    10.0   1_556     S
V34     Er72    10.0   .     S
V35     Er47    10.0   1_655     S
V35     V36    10.0   .     S
V36     Er11    10.0   1_655     S
V36     Er48    10.0   .     S
Er37     Er38    10.0   .     S
Er37     Er41    10.0   .     S
Er37     V58    10.0   .     S
Er38     Er40    10.0   .     S
Er38     V57    10.0   .     S
Er39     Er40    10.0   .     S
Er39     Er47    10.0   .     S
Er39     V51    10.0   .     S
Er40     V52    10.0   .     S
Er41     V25    10.0   1_455     S
Er41     Er42    10.0   1_455     S
Er41     V60    10.0   .     S
Er42     Er41    10.0   1_655     S
Er42     Er44    10.0   .     S
Er42     V59    10.0   1_655     S
Er43     Er44    10.0   .     S
Er43     Er45    10.0   .     S
Er43     V89    10.0   .     S
Er44     V90    10.0   .     S
Er45     Er46    10.0   .     S
Er45     V96    10.0   .     S
Er46     Er48    10.0   .     S
Er46     V95    10.0   .     S
Er47     V35    10.0   1_455     S
Er47     Er48    10.0   1_455     S
Er47     V55    10.0   .     S
Er48     Er47    10.0   1_655     S
Er48     V56    10.0   1_655     S
V49     Er88    10.0   .     S
V49     Er69    10.0   .     S
V49     V50    10.0   .     S
V49     V52    10.0   .     S
V50     Er70    10.0   .     S
V50     Er87    10.0   .     S
V50     V54    10.0   .     S
V51     Er68    10.0   .     S
V51     V52    10.0   .     S
V51     V55    10.0   .     S
V52     Er67    10.0   .     S
V53     Er84    10.0   1_545     S
V53     V54    10.0   .     S
V53     V56    10.0   .     S
V54     Er8    10.0   1_545     S
V54     Er83    10.0   .     S
V55     Er12    10.0   1_455     S
V55     V56    10.0   .     S
V56     Er48    10.0   1_455     S
V57     Er81    10.0   .     S
V57     V58    10.0   .     S
V57     V64    10.0   .     S
V58     Er82    10.0   .     S
V58     V60    10.0   .     S
V59     Er42    10.0   1_455     S
V59     V60    10.0   .     S
V59     V61    10.0   .     S
V60     Er2    10.0   1_455     S
V61     Er66    10.0   1_554     S
V61     V62    10.0   .     S
V62     Er6    10.0   1_554     S
V62     Er65    10.0   .     S
V62     V63    10.0   .     S
V63     Er80    10.0   .     S
V63     Er73    10.0   .     S
V63     V64    10.0   .     S
V64     Er74    10.0   .     S
V64     Er79    10.0   .     S
Er65     V19    10.0   1_554     S
Er65     Er66    10.0   1_554     S
Er65     Er73    10.0   .     S
Er66     V61    10.0   1_556     S
Er66     Er65    10.0   1_556     S
Er66     Er68    10.0   .     S
Er67     Er68    10.0   .     S
Er67     Er69    10.0   .     S
Er69     Er70    10.0   .     S
Er70     Er72    10.0   .     S
Er71     V33    10.0   1_554     S
Er71     Er72    10.0   1_554     S
Er71     Er75    10.0   .     S
Er71     V92    10.0   .     S
Er72     Er71    10.0   1_556     S
Er72     V91    10.0   1_556     S
Er73     Er74    10.0   .     S
Er74     Er76    10.0   .     S
Er75     Er76    10.0   .     S
Er75     V90    10.0   .     S
Er76     V89    10.0   .     S
Er77     V27    10.0   1_545     S
Er77     Er78    10.0   1_545     S
Er77     Er85    10.0   .     S
Er77     V94    10.0   .     S
Er78     Er77    10.0   1_565     S
Er78     Er80    10.0   .     S
Er78     V93    10.0   1_565     S
Er79     Er80    10.0   .     S
Er79     Er81    10.0   .     S
Er81     Er82    10.0   .     S
Er82     Er84    10.0   .     S
Er83     V17    10.0   1_545     S
Er83     Er84    10.0   1_545     S
Er83     Er87    10.0   .     S
Er84     V53    10.0   1_565     S
Er84     Er83    10.0   1_565     S
Er85     Er86    10.0   .     S
Er85     V95    10.0   .     S
Er86     Er88    10.0   .     S
Er86     V96    10.0   .     S
Er87     Er88    10.0   .     S
V89     V90    10.0   .     S
V89     V96    10.0   .     S
V90     V92    10.0   .     S
V91     Er72    10.0   1_554     S
V91     V92    10.0   .     S
V91     V93    10.0   .     S
V92     Er10    10.0   1_554     S
V93     Er78    10.0   1_545     S
V93     V94    10.0   .     S
V94     Er4    10.0   1_545     S
V94     V95    10.0   .     S
V95     V96    10.0   .     S
