data_fuh
_audit_creation_date              2020-02-04
_audit_creation_method            'Pymatgen'
_symmetry_space_group_name_H-M    'P1'
_symmetry_Int_Tables_number       1
loop_
_symmetry_equiv_pos_as_xyz
  x,y,z
_cell_length_a                    56.4574
_cell_length_b                    56.4574
_cell_length_c                    56.4574
_cell_angle_alpha                 90.0
_cell_angle_beta                 90.0
_cell_angle_gamma                 90.0
loop_
_atom_site_label
_atom_site_type_symbol
_atom_site_fract_x
_atom_site_fract_y
_atom_site_fract_z
Er1     Er     0.5886   0.0886   0.75
Er2     Er     0.5886   0.9114   0.75
Er3     Er     0.4114   0.0886   0.75
Er4     Er     0.4114   0.9114   0.75
Er5     Er     0.75   0.5886   0.9114
Er6     Er     0.75   0.4114   0.0886
Er7     Er     0.75   0.5886   0.0886
Er8     Er     0.75   0.4114   0.9114
Er9     Er     0.0886   0.75   0.5886
Er10     Er     0.0886   0.75   0.4114
Er11     Er     0.9114   0.75   0.5886
Er12     Er     0.9114   0.75   0.4114
V13     V     0.5886   0.1614   0.0886
V14     V     0.5886   0.3386   0.0886
V15     V     0.4114   0.1614   0.0886
V16     V     0.4114   0.3386   0.0886
V17     V     0.5886   0.1614   0.9114
V18     V     0.4114   0.3386   0.9114
V19     V     0.5886   0.3386   0.9114
V20     V     0.4114   0.1614   0.9114
V21     V     0.5886   0.6614   0.9114
V22     V     0.4114   0.6614   0.0886
V23     V     0.5886   0.6614   0.0886
V24     V     0.4114   0.6614   0.9114
V25     V     0.4114   0.8386   0.0886
V26     V     0.5886   0.8386   0.9114
V27     V     0.5886   0.8386   0.0886
V28     V     0.4114   0.8386   0.9114
Er29     Er     0.5886   0.0886   0.25
Er30     Er     0.4114   0.9114   0.25
Er31     Er     0.5886   0.9114   0.25
Er32     Er     0.4114   0.0886   0.25
V33     V     0.9114   0.5886   0.6614
V34     V     0.9114   0.4114   0.6614
V35     V     0.0886   0.4114   0.6614
V36     V     0.0886   0.5886   0.6614
V37     V     0.0886   0.4114   0.8386
V38     V     0.9114   0.5886   0.8386
V39     V     0.0886   0.5886   0.8386
V40     V     0.9114   0.4114   0.8386
Er41     Er     0.25   0.5886   0.0886
Er42     Er     0.25   0.4114   0.9114
Er43     Er     0.25   0.5886   0.9114
Er44     Er     0.25   0.4114   0.0886
V45     V     0.0886   0.5886   0.3386
V46     V     0.0886   0.5886   0.1614
V47     V     0.0886   0.4114   0.1614
V48     V     0.0886   0.4114   0.3386
V49     V     0.9114   0.5886   0.1614
V50     V     0.9114   0.4114   0.3386
V51     V     0.9114   0.5886   0.3386
V52     V     0.9114   0.4114   0.1614
V53     V     0.3386   0.0886   0.5886
V54     V     0.1614   0.0886   0.5886
V55     V     0.1614   0.0886   0.4114
V56     V     0.3386   0.0886   0.4114
V57     V     0.1614   0.9114   0.5886
V58     V     0.3386   0.9114   0.4114
V59     V     0.3386   0.9114   0.5886
V60     V     0.1614   0.9114   0.4114
V61     V     0.6614   0.9114   0.5886
V62     V     0.6614   0.0886   0.4114
V63     V     0.6614   0.0886   0.5886
V64     V     0.6614   0.9114   0.4114
V65     V     0.8386   0.0886   0.4114
V66     V     0.8386   0.9114   0.5886
V67     V     0.8386   0.0886   0.5886
V68     V     0.8386   0.9114   0.4114
Er69     Er     0.9114   0.25   0.5886
Er70     Er     0.0886   0.25   0.5886
Er71     Er     0.0886   0.25   0.4114
Er72     Er     0.9114   0.25   0.4114
loop_
_geom_bond_atom_site_label_1
_geom_bond_atom_site_label_2
_geom_bond_distance
_geom_bond_site_symmetry_2
_ccdc_geom_bond_type
Er1     Er3    10.0   .     S
Er1     Er2    10.0   1_545     S
Er1     V63    10.0   .     S
Er1     V17    10.0   .     S
Er2     Er1    10.0   1_565     S
Er2     Er4    10.0   .     S
Er2     V61    10.0   .     S
Er2     V26    10.0   .     S
Er3     Er4    10.0   1_545     S
Er3     V53    10.0   .     S
Er3     V20    10.0   .     S
Er4     Er3    10.0   1_565     S
Er4     V59    10.0   .     S
Er4     V28    10.0   .     S
Er5     Er8    10.0   .     S
Er5     Er7    10.0   1_556     S
Er5     V21    10.0   .     S
Er5     V38    10.0   .     S
Er6     Er8    10.0   1_554     S
Er6     Er7    10.0   .     S
Er6     V14    10.0   .     S
Er6     V52    10.0   .     S
Er7     Er5    10.0   1_554     S
Er7     V23    10.0   .     S
Er7     V49    10.0   .     S
Er8     Er6    10.0   1_556     S
Er8     V19    10.0   .     S
Er8     V40    10.0   .     S
Er9     Er10    10.0   .     S
Er9     Er11    10.0   1_455     S
Er9     V36    10.0   .     S
Er9     V57    10.0   .     S
Er10     Er12    10.0   1_455     S
Er10     V45    10.0   .     S
Er10     V60    10.0   .     S
Er11     Er9    10.0   1_655     S
Er11     Er12    10.0   .     S
Er11     V33    10.0   .     S
Er11     V66    10.0   .     S
Er12     Er10    10.0   1_655     S
Er12     V51    10.0   .     S
Er12     V68    10.0   .     S
V13     V15    10.0   .     S
V13     V14    10.0   .     S
V13     V17    10.0   1_554     S
V13     Er29    10.0   .     S
V14     V16    10.0   .     S
V14     V19    10.0   1_554     S
V15     V16    10.0   .     S
V15     V20    10.0   1_554     S
V15     Er32    10.0   .     S
V16     V18    10.0   1_554     S
V16     Er44    10.0   .     S
V17     V13    10.0   1_556     S
V17     V20    10.0   .     S
V17     V19    10.0   .     S
V18     V16    10.0   1_556     S
V18     V19    10.0   .     S
V18     V20    10.0   .     S
V18     Er42    10.0   .     S
V19     V14    10.0   1_556     S
V20     V15    10.0   1_556     S
V21     V26    10.0   .     S
V21     V24    10.0   .     S
V21     V23    10.0   1_556     S
V22     V25    10.0   .     S
V22     V23    10.0   .     S
V22     V24    10.0   1_554     S
V22     Er41    10.0   .     S
V23     V27    10.0   .     S
V23     V21    10.0   1_554     S
V24     V22    10.0   1_556     S
V24     V28    10.0   .     S
V24     Er43    10.0   .     S
V25     V28    10.0   1_554     S
V25     V27    10.0   .     S
V25     Er30    10.0   .     S
V26     V28    10.0   .     S
V26     V27    10.0   1_556     S
V27     V26    10.0   1_554     S
V27     Er31    10.0   .     S
V28     V25    10.0   1_556     S
Er29     Er32    10.0   .     S
Er29     Er31    10.0   1_545     S
Er29     V62    10.0   .     S
Er30     Er31    10.0   .     S
Er30     Er32    10.0   1_565     S
Er30     V58    10.0   .     S
Er31     Er29    10.0   1_565     S
Er31     V64    10.0   .     S
Er32     Er30    10.0   1_545     S
Er32     V56    10.0   .     S
V33     V38    10.0   .     S
V33     V34    10.0   .     S
V33     V36    10.0   1_655     S
V34     V40    10.0   .     S
V34     V35    10.0   1_655     S
V34     Er69    10.0   .     S
V35     V37    10.0   .     S
V35     V36    10.0   .     S
V35     V34    10.0   1_455     S
V35     Er70    10.0   .     S
V36     V39    10.0   .     S
V36     V33    10.0   1_455     S
V37     V40    10.0   1_455     S
V37     V39    10.0   .     S
V37     Er42    10.0   .     S
V38     V40    10.0   .     S
V38     V39    10.0   1_655     S
V39     V38    10.0   1_455     S
V39     Er43    10.0   .     S
V40     V37    10.0   1_655     S
Er41     Er43    10.0   1_554     S
Er41     Er44    10.0   .     S
Er41     V46    10.0   .     S
Er42     Er43    10.0   .     S
Er42     Er44    10.0   1_556     S
Er43     Er41    10.0   1_556     S
Er44     Er42    10.0   1_554     S
Er44     V47    10.0   .     S
V45     V48    10.0   .     S
V45     V51    10.0   1_455     S
V45     V46    10.0   .     S
V46     V47    10.0   .     S
V46     V49    10.0   1_455     S
V47     V48    10.0   .     S
V47     V52    10.0   1_455     S
V48     V50    10.0   1_455     S
V48     Er71    10.0   .     S
V49     V46    10.0   1_655     S
V49     V52    10.0   .     S
V49     V51    10.0   .     S
V50     V48    10.0   1_655     S
V50     V51    10.0   .     S
V50     V52    10.0   .     S
V50     Er72    10.0   .     S
V51     V45    10.0   1_655     S
V52     V47    10.0   1_655     S
V53     V56    10.0   .     S
V53     V59    10.0   1_545     S
V53     V54    10.0   .     S
V54     V55    10.0   .     S
V54     V57    10.0   1_545     S
V54     Er70    10.0   .     S
V55     V56    10.0   .     S
V55     V60    10.0   1_545     S
V55     Er71    10.0   .     S
V56     V58    10.0   1_545     S
V57     V54    10.0   1_565     S
V57     V60    10.0   .     S
V57     V59    10.0   .     S
V58     V56    10.0   1_565     S
V58     V59    10.0   .     S
V58     V60    10.0   .     S
V59     V53    10.0   1_565     S
V60     V55    10.0   1_565     S
V61     V66    10.0   .     S
V61     V64    10.0   .     S
V61     V63    10.0   1_565     S
V62     V65    10.0   .     S
V62     V63    10.0   .     S
V62     V64    10.0   1_545     S
V63     V67    10.0   .     S
V63     V61    10.0   1_545     S
V64     V62    10.0   1_565     S
V64     V68    10.0   .     S
V65     V68    10.0   1_545     S
V65     V67    10.0   .     S
V65     Er72    10.0   .     S
V66     V68    10.0   .     S
V66     V67    10.0   1_565     S
V67     V66    10.0   1_545     S
V67     Er69    10.0   .     S
V68     V65    10.0   1_565     S
Er69     Er72    10.0   .     S
Er69     Er70    10.0   1_655     S
Er70     Er71    10.0   .     S
Er70     Er69    10.0   1_455     S
Er71     Er72    10.0   1_455     S
Er72     Er71    10.0   1_655     S
