data_fvf
_audit_creation_date              2020-02-04
_audit_creation_method            'Pymatgen'
_symmetry_space_group_name_H-M    'P1'
_symmetry_Int_Tables_number       1
loop_
_symmetry_equiv_pos_as_xyz
  x,y,z
_cell_length_a                    54.4949
_cell_length_b                    54.4949
_cell_length_c                    54.4949
_cell_angle_alpha                 90.0
_cell_angle_beta                 90.0
_cell_angle_gamma                 90.0
loop_
_atom_site_label
_atom_site_type_symbol
_atom_site_fract_x
_atom_site_fract_y
_atom_site_fract_z
Er1     Er     0.0918   0.0918   0.5
Er2     Er     0.0918   0.9082   0.5
Er3     Er     0.9082   0.0918   0.5
Er4     Er     0.9082   0.9082   0.5
Er5     Er     0.0918   0.5   0.0918
Er6     Er     0.0918   0.5   0.9082
Er7     Er     0.9082   0.5   0.0918
Er8     Er     0.9082   0.5   0.9082
Er9     Er     0.5   0.0918   0.0918
Er10     Er     0.5   0.0918   0.9082
Er11     Er     0.5   0.9082   0.0918
Er12     Er     0.5   0.9082   0.9082
Er13     Er     0.4082   0.5918   0.0
Er14     Er     0.4082   0.4082   0.0
Er15     Er     0.5918   0.4082   0.0
Er16     Er     0.5918   0.5918   0.0
Er17     Er     0.4082   0.0   0.5918
Er18     Er     0.4082   0.0   0.4082
Er19     Er     0.5918   0.0   0.4082
Er20     Er     0.5918   0.0   0.5918
Er21     Er     0.0   0.4082   0.5918
Er22     Er     0.0   0.4082   0.4082
Er23     Er     0.0   0.5918   0.4082
Er24     Er     0.0   0.5918   0.5918
V25     V     0.7041   0.2959   0.9082
V26     V     0.7041   0.2959   0.0918
V27     V     0.5918   0.2041   0.7959
V28     V     0.4082   0.2041   0.7959
V29     V     0.7959   0.5918   0.2041
V30     V     0.7959   0.4082   0.2041
V31     V     0.9082   0.7041   0.2959
V32     V     0.0918   0.7041   0.2959
V33     V     0.2041   0.7959   0.5918
V34     V     0.2041   0.7959   0.4082
V35     V     0.2959   0.9082   0.7041
V36     V     0.2959   0.0918   0.7041
V37     V     0.5918   0.7959   0.7959
V38     V     0.4082   0.7959   0.7959
V39     V     0.7041   0.0918   0.7041
V40     V     0.7041   0.9082   0.7041
V41     V     0.7959   0.7959   0.5918
V42     V     0.7959   0.7959   0.4082
V43     V     0.7041   0.7041   0.0918
V44     V     0.7041   0.7041   0.9082
V45     V     0.7959   0.5918   0.7959
V46     V     0.7959   0.4082   0.7959
V47     V     0.0918   0.7041   0.7041
V48     V     0.9082   0.7041   0.7041
V49     V     0.2959   0.7041   0.0918
V50     V     0.2959   0.7041   0.9082
V51     V     0.2041   0.5918   0.7959
V52     V     0.2041   0.4082   0.7959
V53     V     0.0918   0.2959   0.7041
V54     V     0.9082   0.2959   0.7041
V55     V     0.7959   0.2041   0.5918
V56     V     0.7959   0.2041   0.4082
V57     V     0.5918   0.7959   0.2041
V58     V     0.4082   0.7959   0.2041
V59     V     0.7041   0.9082   0.2959
V60     V     0.7041   0.0918   0.2959
V61     V     0.2959   0.2959   0.9082
V62     V     0.2959   0.2959   0.0918
V63     V     0.5918   0.2041   0.2041
V64     V     0.4082   0.2041   0.2041
V65     V     0.2041   0.5918   0.2041
V66     V     0.2041   0.4082   0.2041
V67     V     0.2959   0.9082   0.2959
V68     V     0.2959   0.0918   0.2959
V69     V     0.2041   0.2041   0.5918
V70     V     0.2041   0.2041   0.4082
V71     V     0.9082   0.2959   0.2959
V72     V     0.0918   0.2959   0.2959
loop_
_geom_bond_atom_site_label_1
_geom_bond_atom_site_label_2
_geom_bond_distance
_geom_bond_site_symmetry_2
_ccdc_geom_bond_type
Er1     Er2    10.0   1_545     S
Er1     Er3    10.0   1_455     S
Er1     V69    10.0   .     S
Er1     V70    10.0   .     S
Er2     Er1    10.0   1_565     S
Er2     Er4    10.0   1_455     S
Er2     V33    10.0   .     S
Er2     V34    10.0   .     S
Er3     Er1    10.0   1_655     S
Er3     Er4    10.0   1_545     S
Er3     V55    10.0   .     S
Er3     V56    10.0   .     S
Er4     Er2    10.0   1_655     S
Er4     Er3    10.0   1_565     S
Er4     V41    10.0   .     S
Er4     V42    10.0   .     S
Er5     Er6    10.0   1_554     S
Er5     Er7    10.0   1_455     S
Er5     V65    10.0   .     S
Er5     V66    10.0   .     S
Er6     Er5    10.0   1_556     S
Er6     Er8    10.0   1_455     S
Er6     V51    10.0   .     S
Er6     V52    10.0   .     S
Er7     Er5    10.0   1_655     S
Er7     Er8    10.0   1_554     S
Er7     V29    10.0   .     S
Er7     V30    10.0   .     S
Er8     Er6    10.0   1_655     S
Er8     Er7    10.0   1_556     S
Er8     V45    10.0   .     S
Er8     V46    10.0   .     S
Er9     Er10    10.0   1_554     S
Er9     Er11    10.0   1_545     S
Er9     V63    10.0   .     S
Er9     V64    10.0   .     S
Er10     Er9    10.0   1_556     S
Er10     Er12    10.0   1_545     S
Er10     V27    10.0   .     S
Er10     V28    10.0   .     S
Er11     Er9    10.0   1_565     S
Er11     Er12    10.0   1_554     S
Er11     V57    10.0   .     S
Er11     V58    10.0   .     S
Er12     Er10    10.0   1_565     S
Er12     Er11    10.0   1_556     S
Er12     V37    10.0   .     S
Er12     V38    10.0   .     S
Er13     Er16    10.0   .     S
Er13     Er14    10.0   .     S
Er13     V49    10.0   .     S
Er13     V50    10.0   1_554     S
Er14     Er15    10.0   .     S
Er14     V61    10.0   1_554     S
Er14     V62    10.0   .     S
Er15     Er16    10.0   .     S
Er15     V25    10.0   1_554     S
Er15     V26    10.0   .     S
Er16     V43    10.0   .     S
Er16     V44    10.0   1_554     S
Er17     Er20    10.0   .     S
Er17     Er18    10.0   .     S
Er17     V35    10.0   1_545     S
Er17     V36    10.0   .     S
Er18     Er19    10.0   .     S
Er18     V67    10.0   1_545     S
Er18     V68    10.0   .     S
Er19     Er20    10.0   .     S
Er19     V59    10.0   1_545     S
Er19     V60    10.0   .     S
Er20     V39    10.0   .     S
Er20     V40    10.0   1_545     S
Er21     Er24    10.0   .     S
Er21     Er22    10.0   .     S
Er21     V53    10.0   .     S
Er21     V54    10.0   1_455     S
Er22     Er23    10.0   .     S
Er22     V71    10.0   1_455     S
Er22     V72    10.0   .     S
Er23     Er24    10.0   .     S
Er23     V31    10.0   1_455     S
Er23     V32    10.0   .     S
Er24     V47    10.0   .     S
Er24     V48    10.0   1_455     S
V25     Er15    10.0   1_556     S
V25     V26    10.0   1_556     S
V25     V46    10.0   .     S
V25     V27    10.0   .     S
V26     V25    10.0   1_554     S
V26     V30    10.0   .     S
V26     V63    10.0   .     S
V27     V28    10.0   .     S
V27     V39    10.0   .     S
V28     V36    10.0   .     S
V28     V61    10.0   .     S
V29     V30    10.0   .     S
V29     V43    10.0   .     S
V29     V31    10.0   .     S
V30     V71    10.0   .     S
V31     Er23    10.0   1_655     S
V31     V32    10.0   1_655     S
V31     V42    10.0   .     S
V32     V31    10.0   1_455     S
V32     V34    10.0   .     S
V32     V65    10.0   .     S
V33     V34    10.0   .     S
V33     V47    10.0   .     S
V33     V35    10.0   .     S
V34     V67    10.0   .     S
V35     Er17    10.0   1_565     S
V35     V36    10.0   1_565     S
V35     V38    10.0   .     S
V36     V35    10.0   1_545     S
V36     V69    10.0   .     S
V37     V38    10.0   .     S
V37     V40    10.0   .     S
V37     V44    10.0   .     S
V38     V50    10.0   .     S
V39     V40    10.0   1_545     S
V39     V55    10.0   .     S
V40     Er20    10.0   1_565     S
V40     V39    10.0   1_565     S
V40     V41    10.0   .     S
V41     V42    10.0   .     S
V41     V48    10.0   .     S
V42     V59    10.0   .     S
V43     V44    10.0   1_554     S
V43     V57    10.0   .     S
V44     Er16    10.0   1_556     S
V44     V43    10.0   1_556     S
V44     V45    10.0   .     S
V45     V46    10.0   .     S
V45     V48    10.0   .     S
V46     V54    10.0   .     S
V47     V48    10.0   1_455     S
V47     V51    10.0   .     S
V48     Er24    10.0   1_655     S
V48     V47    10.0   1_655     S
V49     V50    10.0   1_554     S
V49     V58    10.0   .     S
V49     V65    10.0   .     S
V50     Er13    10.0   1_556     S
V50     V49    10.0   1_556     S
V50     V51    10.0   .     S
V51     V52    10.0   .     S
V52     V53    10.0   .     S
V52     V61    10.0   .     S
V53     V54    10.0   1_455     S
V53     V69    10.0   .     S
V54     Er21    10.0   1_655     S
V54     V53    10.0   1_655     S
V54     V55    10.0   .     S
V55     V56    10.0   .     S
V56     V60    10.0   .     S
V56     V71    10.0   .     S
V57     V58    10.0   .     S
V57     V59    10.0   .     S
V58     V67    10.0   .     S
V59     Er19    10.0   1_565     S
V59     V60    10.0   1_565     S
V60     V59    10.0   1_545     S
V60     V63    10.0   .     S
V61     Er14    10.0   1_556     S
V61     V62    10.0   1_556     S
V62     V61    10.0   1_554     S
V62     V66    10.0   .     S
V62     V64    10.0   .     S
V63     V64    10.0   .     S
V64     V68    10.0   .     S
V65     V66    10.0   .     S
V66     V72    10.0   .     S
V67     Er18    10.0   1_565     S
V67     V68    10.0   1_565     S
V68     V67    10.0   1_545     S
V68     V70    10.0   .     S
V69     V70    10.0   .     S
V70     V72    10.0   .     S
V71     Er22    10.0   1_655     S
V71     V72    10.0   1_655     S
V72     V71    10.0   1_455     S
