data_gal
_audit_creation_date              2020-02-04
_audit_creation_method            'Pymatgen'
_symmetry_space_group_name_H-M    'P1'
_symmetry_Int_Tables_number       1
loop_
_symmetry_equiv_pos_as_xyz
  x,y,z
_cell_length_a                    34.6739
_cell_length_b                    34.6739
_cell_length_c                    34.6739
_cell_angle_alpha                 90.0
_cell_angle_beta                 90.0
_cell_angle_gamma                 90.0
loop_
_atom_site_label
_atom_site_type_symbol
_atom_site_fract_x
_atom_site_fract_y
_atom_site_fract_z
V1     V     0.0   0.0   0.0
Er2     Er     0.0   0.25   0.875
Er3     Er     0.875   0.0   0.25
V4     V     0.0   0.0   0.5
Er5     Er     0.0   0.75   0.625
Er6     Er     0.25   0.875   0.0
Er7     Er     0.0   0.75   0.125
V8     V     0.25   0.75   0.25
Er9     Er     0.25   0.625   0.5
V10     V     0.25   0.75   0.75
Er11     Er     0.5   0.75   0.875
V12     V     0.75   0.25   0.75
Er13     Er     0.875   0.5   0.75
Er14     Er     0.0   0.25   0.375
V15     V     0.25   0.25   0.25
Er16     Er     0.25   0.375   0.0
V17     V     0.25   0.25   0.75
Er18     Er     0.5   0.25   0.625
Er19     Er     0.375   0.0   0.25
V20     V     0.5   0.0   0.5
Er21     Er     0.5   0.75   0.375
Er22     Er     0.625   0.0   0.75
V23     V     0.5   0.0   0.0
Er24     Er     0.5   0.25   0.125
Er25     Er     0.25   0.125   0.5
V26     V     0.75   0.75   0.25
Er27     Er     0.625   0.5   0.25
V28     V     0.75   0.25   0.25
V29     V     0.75   0.75   0.75
Er30     Er     0.125   0.0   0.75
Er31     Er     0.75   0.375   0.5
V32     V     0.0   0.5   0.5
Er33     Er     0.75   0.625   0.0
V34     V     0.5   0.5   0.0
Er35     Er     0.75   0.125   0.0
Er36     Er     0.375   0.5   0.75
Er37     Er     0.75   0.875   0.5
Er38     Er     0.125   0.5   0.25
V39     V     0.5   0.5   0.5
V40     V     0.0   0.5   0.0
loop_
_geom_bond_atom_site_label_1
_geom_bond_atom_site_label_2
_geom_bond_distance
_geom_bond_site_symmetry_2
_ccdc_geom_bond_type
V1     Er2    9.692   1_554     S
V1     Er3    9.692   1_455     S
V1     Er6    9.692   1_545     S
V1     Er7    9.692   1_545     S
V1     Er30    9.692   1_554     S
V1     Er35    9.692   1_455     S
Er2     V1    9.692   1_556     S
Er2     V12    9.692   1_455     S
Er2     V40    9.692   1_556     S
Er2     V17    9.692   .     S
Er2     Er35    10.617   1_456     S
Er2     Er13    10.617   1_455     S
Er2     Er30    10.617   .     S
Er2     Er16    10.617   1_556     S
Er3     V1    9.692   1_655     S
Er3     V4    9.692   1_655     S
Er3     V28    9.692   .     S
Er3     V26    9.692   1_545     S
Er3     Er7    10.617   1_645     S
Er3     Er37    10.617   1_545     S
Er3     Er35    10.617   .     S
Er3     Er14    10.617   1_655     S
V4     Er3    9.692   1_455     S
V4     Er5    9.692   1_545     S
V4     Er14    9.692   .     S
V4     Er30    9.692   .     S
V4     Er25    9.692   .     S
V4     Er37    9.692   1_445     S
Er5     V4    9.692   1_565     S
Er5     V29    9.692   1_455     S
Er5     V32    9.692   .     S
Er5     V10    9.692   .     S
Er5     Er37    10.617   1_455     S
Er5     Er9    10.617   .     S
Er5     Er13    10.617   1_455     S
Er5     Er30    10.617   1_565     S
Er6     V1    9.692   1_565     S
Er6     V23    9.692   1_565     S
Er6     V8    9.692   .     S
Er6     V10    9.692   1_554     S
Er6     Er30    10.617   1_564     S
Er6     Er19    10.617   1_565     S
Er6     Er11    10.617   1_554     S
Er6     Er7    10.617   .     S
Er7     V1    9.692   1_565     S
Er7     V8    9.692   .     S
Er7     V26    9.692   1_455     S
Er7     V40    9.692   .     S
Er7     Er38    10.617   .     S
Er7     Er3    10.617   1_465     S
Er7     Er33    10.617   1_455     S
V8     Er9    9.692   .     S
V8     Er38    9.692   .     S
V8     Er19    9.692   1_565     S
V8     Er21    9.692   .     S
Er9     V10    9.692   .     S
Er9     V32    9.692   .     S
Er9     V39    9.692   .     S
Er9     Er21    10.617   .     S
Er9     Er36    10.617   .     S
Er9     Er38    10.617   .     S
V10     Er11    9.692   .     S
V10     Er36    9.692   .     S
V10     Er30    9.692   1_565     S
V10     Er6    9.692   1_556     S
Er11     V23    9.692   1_566     S
Er11     V29    9.692   .     S
Er11     V34    9.692   1_556     S
Er11     Er36    10.617   .     S
Er11     Er6    10.617   1_556     S
Er11     Er33    10.617   1_556     S
Er11     Er22    10.617   1_565     S
V12     Er2    9.692   1_655     S
V12     Er13    9.692   .     S
V12     Er31    9.692   .     S
V12     Er18    9.692   .     S
V12     Er35    9.692   1_556     S
V12     Er22    9.692   .     S
Er13     V29    9.692   .     S
Er13     V40    9.692   1_656     S
Er13     V32    9.692   1_655     S
Er13     Er5    10.617   1_655     S
Er13     Er2    10.617   1_655     S
Er13     Er33    10.617   1_556     S
Er13     Er31    10.617   .     S
Er14     V15    9.692   .     S
Er14     V28    9.692   1_455     S
Er14     V32    9.692   .     S
Er14     Er38    10.617   .     S
Er14     Er25    10.617   .     S
Er14     Er31    10.617   1_455     S
Er14     Er3    10.617   1_455     S
V15     Er16    9.692   .     S
V15     Er19    9.692   .     S
V15     Er24    9.692   .     S
V15     Er25    9.692   .     S
V15     Er38    9.692   .     S
Er16     V17    9.692   1_554     S
Er16     V34    9.692   .     S
Er16     V40    9.692   .     S
Er16     Er24    10.617   .     S
Er16     Er2    10.617   1_554     S
Er16     Er38    10.617   .     S
Er16     Er36    10.617   1_554     S
V17     Er16    9.692   1_556     S
V17     Er18    9.692   .     S
V17     Er36    9.692   .     S
V17     Er30    9.692   .     S
V17     Er25    9.692   .     S
Er18     V20    9.692   .     S
Er18     V39    9.692   .     S
Er18     Er36    10.617   .     S
Er18     Er25    10.617   .     S
Er18     Er22    10.617   .     S
Er18     Er31    10.617   .     S
Er19     V20    9.692   .     S
Er19     V23    9.692   .     S
Er19     V8    9.692   1_545     S
Er19     Er25    10.617   .     S
Er19     Er6    10.617   1_545     S
Er19     Er24    10.617   .     S
Er19     Er21    10.617   1_545     S
V20     Er21    9.692   1_545     S
V20     Er22    9.692   .     S
V20     Er25    9.692   .     S
V20     Er37    9.692   1_545     S
Er21     V20    9.692   1_565     S
Er21     V26    9.692   .     S
Er21     V39    9.692   .     S
Er21     Er37    10.617   .     S
Er21     Er27    10.617   .     S
Er21     Er19    10.617   1_565     S
Er22     V23    9.692   1_556     S
Er22     V29    9.692   1_545     S
Er22     Er37    10.617   1_545     S
Er22     Er35    10.617   1_556     S
Er22     Er11    10.617   1_545     S
V23     Er22    9.692   1_554     S
V23     Er24    9.692   .     S
V23     Er11    9.692   1_544     S
V23     Er6    9.692   1_545     S
V23     Er35    9.692   .     S
Er24     V28    9.692   .     S
Er24     V34    9.692   .     S
Er24     Er35    10.617   .     S
Er24     Er27    10.617   .     S
Er25     Er30    10.617   .     S
V26     Er27    9.692   .     S
V26     Er33    9.692   .     S
V26     Er7    9.692   1_655     S
V26     Er37    9.692   .     S
V26     Er3    9.692   1_565     S
Er27     V28    9.692   .     S
Er27     V39    9.692   .     S
Er27     V34    9.692   .     S
Er27     Er33    10.617   .     S
Er27     Er31    10.617   .     S
V28     Er31    9.692   .     S
V28     Er14    9.692   1_655     S
V28     Er35    9.692   .     S
V29     Er5    9.692   1_655     S
V29     Er33    9.692   1_556     S
V29     Er22    9.692   1_565     S
V29     Er37    9.692   .     S
Er30     V1    9.692   1_556     S
Er30     V10    9.692   1_545     S
Er30     Er6    10.617   1_546     S
Er30     Er5    10.617   1_545     S
Er31     V32    9.692   1_655     S
Er31     V39    9.692   .     S
Er31     Er14    10.617   1_655     S
V32     Er31    9.692   1_455     S
V32     Er38    9.692   .     S
V32     Er13    9.692   1_455     S
Er33     V34    9.692   .     S
Er33     V29    9.692   1_554     S
Er33     V40    9.692   1_655     S
Er33     Er11    10.617   1_554     S
Er33     Er13    10.617   1_554     S
Er33     Er7    10.617   1_655     S
V34     Er36    9.692   1_554     S
V34     Er11    9.692   1_554     S
Er35     V1    9.692   1_655     S
Er35     V12    9.692   1_554     S
Er35     Er2    10.617   1_654     S
Er35     Er22    10.617   1_554     S
Er36     V39    9.692   .     S
Er36     V34    9.692   1_556     S
Er36     Er16    10.617   1_556     S
Er37     V20    9.692   1_565     S
Er37     V4    9.692   1_665     S
Er37     Er5    10.617   1_655     S
Er37     Er22    10.617   1_565     S
Er37     Er3    10.617   1_565     S
Er38     V40    9.692   .     S
V40     Er2    9.692   1_554     S
V40     Er33    9.692   1_455     S
V40     Er13    9.692   1_454     S
