data_gala
_audit_creation_date              2020-02-04
_audit_creation_method            'Pymatgen'
_symmetry_space_group_name_H-M    'P1'
_symmetry_Int_Tables_number       1
loop_
_symmetry_equiv_pos_as_xyz
  x,y,z
_cell_length_a                    93.7921
_cell_length_b                    93.7921
_cell_length_c                    93.7921
_cell_angle_alpha                 90.0
_cell_angle_beta                 90.0
_cell_angle_gamma                 90.0
loop_
_atom_site_label
_atom_site_type_symbol
_atom_site_fract_x
_atom_site_fract_y
_atom_site_fract_z
Ti1     Ti     0.7289   0.0657   0.9181
Er2     Er     0.7343   0.1701   0.9387
Ti3     Ti     0.8319   0.1843   0.9789
Er4     Er     0.8113   0.0799   0.9843
Ti5     Ti     0.6681   0.1843   0.0211
Er6     Er     0.6887   0.0799   0.0157
Ti7     Ti     0.7711   0.0657   0.0819
Er8     Er     0.7657   0.1701   0.0613
Ti9     Ti     0.1843   0.0211   0.6681
Er10     Er     0.0799   0.0157   0.6887
Ti11     Ti     0.0657   0.0819   0.7711
Er12     Er     0.1701   0.0613   0.7657
Ti13     Ti     0.1843   0.9789   0.8319
Er14     Er     0.0799   0.9843   0.8113
Ti15     Ti     0.0657   0.9181   0.7289
Er16     Er     0.1701   0.9387   0.7343
Ti17     Ti     0.0211   0.6681   0.1843
Er18     Er     0.0157   0.6887   0.0799
Ti19     Ti     0.0819   0.7711   0.0657
Er20     Er     0.0613   0.7657   0.1701
Ti21     Ti     0.9789   0.8319   0.1843
Er22     Er     0.9843   0.8113   0.0799
Ti23     Ti     0.9181   0.7289   0.0657
Er24     Er     0.9387   0.7343   0.1701
V25     V     0.9129   0.5546   0.9955
V26     V     0.9955   0.5871   0.0546
V27     V     0.9454   0.4955   0.9129
V28     V     0.0045   0.4129   0.9454
V29     V     0.0871   0.4454   0.0045
V30     V     0.0546   0.5045   0.0871
V31     V     0.0045   0.9129   0.0546
V32     V     0.0871   0.9454   0.9955
V33     V     0.9129   0.0546   0.0045
V34     V     0.9454   0.9955   0.0871
V35     V     0.9955   0.0871   0.9454
V36     V     0.0546   0.0045   0.9129
Ti37     Ti     0.1681   0.1843   0.4789
Er38     Er     0.1887   0.0799   0.4843
Ti39     Ti     0.2289   0.0657   0.5819
Er40     Er     0.2343   0.1701   0.5613
Ti41     Ti     0.3319   0.1843   0.5211
Er42     Er     0.3113   0.0799   0.5157
Ti43     Ti     0.2711   0.0657   0.4181
Er44     Er     0.2657   0.1701   0.4387
Ti45     Ti     0.2711   0.4343   0.9181
Er46     Er     0.2657   0.3299   0.9387
Ti47     Ti     0.1681   0.3157   0.9789
Er48     Er     0.1887   0.4201   0.9843
Ti49     Ti     0.2289   0.4343   0.0819
Er50     Er     0.2343   0.3299   0.0613
Ti51     Ti     0.3319   0.3157   0.0211
Er52     Er     0.3113   0.4201   0.0157
V53     V     0.5045   0.5871   0.9454
V54     V     0.4454   0.5045   0.9129
V55     V     0.5871   0.5546   0.0045
V56     V     0.4955   0.4129   0.0546
V57     V     0.5546   0.4955   0.0871
V58     V     0.4129   0.4454   0.9955
Ti59     Ti     0.6681   0.6843   0.9789
Er60     Er     0.6887   0.5799   0.9843
Ti61     Ti     0.7711   0.5657   0.9181
Er62     Er     0.7657   0.6701   0.9387
Ti63     Ti     0.8319   0.6843   0.0211
Er64     Er     0.8113   0.5799   0.0157
Ti65     Ti     0.7289   0.5657   0.0819
Er66     Er     0.7343   0.6701   0.0613
Ti67     Ti     0.4343   0.9181   0.2711
Er68     Er     0.3299   0.9387   0.2657
Ti69     Ti     0.3157   0.9789   0.1681
Er70     Er     0.4201   0.9843   0.1887
Ti71     Ti     0.4343   0.0819   0.2289
Er72     Er     0.3299   0.0613   0.2343
Ti73     Ti     0.3157   0.0211   0.3319
Er74     Er     0.4201   0.0157   0.3113
Ti75     Ti     0.9789   0.3319   0.8157
Er76     Er     0.9843   0.3113   0.9201
Ti77     Ti     0.9181   0.2289   0.9343
Er78     Er     0.9387   0.2343   0.8299
Ti79     Ti     0.0819   0.2711   0.9343
Er80     Er     0.0613   0.2657   0.8299
Ti81     Ti     0.0211   0.1681   0.8157
Er82     Er     0.0157   0.1887   0.9201
V83     V     0.9454   0.0045   0.4129
V84     V     0.9129   0.9454   0.4955
V85     V     0.9955   0.9129   0.5546
V86     V     0.0045   0.0871   0.4454
V87     V     0.0871   0.0546   0.5045
V88     V     0.0546   0.9955   0.5871
Ti89     Ti     0.9181   0.2711   0.4343
Er90     Er     0.9387   0.2657   0.3299
Ti91     Ti     0.9789   0.1681   0.3157
Er92     Er     0.9843   0.1887   0.4201
Ti93     Ti     0.0819   0.2289   0.4343
Er94     Er     0.0613   0.2343   0.3299
Ti95     Ti     0.0211   0.3319   0.3157
Er96     Er     0.0157   0.3113   0.4201
V97     V     0.0871   0.5546   0.4955
V98     V     0.0045   0.5871   0.5546
V99     V     0.0546   0.4955   0.4129
V100     V     0.9454   0.5045   0.5871
V101     V     0.9129   0.4454   0.5045
V102     V     0.9955   0.4129   0.4454
Ti103     Ti     0.0819   0.7289   0.5657
Er104     Er     0.0613   0.7343   0.6701
Ti105     Ti     0.0211   0.8319   0.6843
Er106     Er     0.0157   0.8113   0.5799
Ti107     Ti     0.9789   0.6681   0.6843
Er108     Er     0.9843   0.6887   0.5799
Ti109     Ti     0.9181   0.7711   0.5657
Er110     Er     0.9387   0.7657   0.6701
V111     V     0.5546   0.9955   0.9129
V112     V     0.5045   0.0871   0.0546
V113     V     0.4454   0.0045   0.0871
V114     V     0.4955   0.9129   0.9454
V115     V     0.4129   0.9454   0.0045
V116     V     0.5871   0.0546   0.9955
Ti117     Ti     0.2711   0.9343   0.0819
Er118     Er     0.2657   0.8299   0.0613
Ti119     Ti     0.1681   0.8157   0.0211
Er120     Er     0.1887   0.9201   0.0157
Ti121     Ti     0.3319   0.8157   0.9789
Er122     Er     0.3113   0.9201   0.9843
Ti123     Ti     0.2289   0.9343   0.9181
Er124     Er     0.2343   0.8299   0.9387
V125     V     0.4129   0.0546   0.4955
V126     V     0.5045   0.9129   0.4454
V127     V     0.4454   0.9955   0.4129
V128     V     0.4955   0.0871   0.5546
V129     V     0.5546   0.0045   0.5871
V130     V     0.5871   0.9454   0.5045
Ti131     Ti     0.5657   0.0819   0.7289
Er132     Er     0.6701   0.0613   0.7343
Ti133     Ti     0.6843   0.9789   0.6681
Er134     Er     0.5799   0.9843   0.6887
Ti135     Ti     0.6843   0.0211   0.8319
Er136     Er     0.5799   0.0157   0.8113
Ti137     Ti     0.5657   0.9181   0.7711
Er138     Er     0.6701   0.9387   0.7657
Ti139     Ti     0.9343   0.0819   0.2711
Er140     Er     0.8299   0.0613   0.2657
Ti141     Ti     0.8157   0.0211   0.1681
Er142     Er     0.9201   0.0157   0.1887
Ti143     Ti     0.8157   0.9789   0.3319
Er144     Er     0.9201   0.9843   0.3113
Ti145     Ti     0.9343   0.9181   0.2289
Er146     Er     0.8299   0.9387   0.2343
Ti147     Ti     0.6681   0.8157   0.4789
Er148     Er     0.6887   0.9201   0.4843
Ti149     Ti     0.7711   0.9343   0.4181
Er150     Er     0.7657   0.8299   0.4387
Ti151     Ti     0.8319   0.8157   0.5211
Er152     Er     0.8113   0.9201   0.5157
Ti153     Ti     0.7289   0.9343   0.5819
Er154     Er     0.7343   0.8299   0.5613
Ti155     Ti     0.8157   0.5211   0.8319
Er156     Er     0.9201   0.5157   0.8113
Ti157     Ti     0.9343   0.5819   0.7289
Er158     Er     0.8299   0.5613   0.7343
Ti159     Ti     0.8157   0.4789   0.6681
Er160     Er     0.9201   0.4843   0.6887
Ti161     Ti     0.9343   0.4181   0.7711
Er162     Er     0.8299   0.4387   0.7657
V163     V     0.7545   0.8046   0.6629
V164     V     0.8371   0.7455   0.6954
V165     V     0.6629   0.7545   0.8046
V166     V     0.6954   0.8371   0.7455
V167     V     0.8046   0.6629   0.7545
V168     V     0.7455   0.6954   0.8371
Ti169     Ti     0.4789   0.6681   0.8157
Er170     Er     0.4843   0.6887   0.9201
Ti171     Ti     0.4181   0.7711   0.9343
Er172     Er     0.4387   0.7657   0.8299
Ti173     Ti     0.5211   0.8319   0.8157
Er174     Er     0.5157   0.8113   0.9201
Ti175     Ti     0.5819   0.7289   0.9343
Er176     Er     0.5613   0.7343   0.8299
V177     V     0.2455   0.3046   0.8371
V178     V     0.3046   0.3371   0.7545
V179     V     0.2545   0.1954   0.6629
V180     V     0.3371   0.2545   0.6954
V181     V     0.1629   0.2455   0.8046
V182     V     0.1954   0.1629   0.7455
V183     V     0.6629   0.7455   0.3046
V184     V     0.6954   0.6629   0.2455
V185     V     0.8046   0.8371   0.2545
V186     V     0.8371   0.7545   0.1954
V187     V     0.7455   0.8046   0.3371
V188     V     0.7545   0.6954   0.1629
Ti189     Ti     0.5657   0.5819   0.2711
Er190     Er     0.6701   0.5613   0.2657
Ti191     Ti     0.6843   0.4789   0.3319
Er192     Er     0.5799   0.4843   0.3113
Ti193     Ti     0.5657   0.4181   0.2289
Er194     Er     0.6701   0.4387   0.2343
Ti195     Ti     0.6843   0.5211   0.1681
Er196     Er     0.5799   0.5157   0.1887
V197     V     0.3371   0.7545   0.3046
V198     V     0.2455   0.8046   0.1629
V199     V     0.3046   0.8371   0.2455
V200     V     0.1954   0.6629   0.2545
V201     V     0.2545   0.6954   0.3371
V202     V     0.1629   0.7455   0.1954
Ti203     Ti     0.1843   0.5211   0.3319
Er204     Er     0.0799   0.5157   0.3113
Ti205     Ti     0.0657   0.4181   0.2711
Er206     Er     0.1701   0.4387   0.2657
Ti207     Ti     0.1843   0.4789   0.1681
Er208     Er     0.0799   0.4843   0.1887
Ti209     Ti     0.0657   0.5819   0.2289
Er210     Er     0.1701   0.5613   0.2343
V211     V     0.8371   0.2455   0.3046
V212     V     0.8046   0.1629   0.2455
V213     V     0.7455   0.1954   0.1629
V214     V     0.7545   0.3046   0.3371
V215     V     0.6954   0.3371   0.2545
V216     V     0.6629   0.2545   0.1954
Ti217     Ti     0.8319   0.3157   0.4789
Er218     Er     0.8113   0.4201   0.4843
Ti219     Ti     0.7711   0.4343   0.5819
Er220     Er     0.7657   0.3299   0.5613
Ti221     Ti     0.6681   0.3157   0.5211
Er222     Er     0.6887   0.4201   0.5157
Ti223     Ti     0.7289   0.4343   0.4181
Er224     Er     0.7343   0.3299   0.4387
V225     V     0.6629   0.2455   0.6954
V226     V     0.6954   0.1629   0.7545
V227     V     0.7545   0.1954   0.8371
V228     V     0.8371   0.2545   0.8046
V229     V     0.8046   0.3371   0.7455
V230     V     0.7455   0.3046   0.6629
Ti231     Ti     0.5211   0.1681   0.6843
Er232     Er     0.5157   0.1887   0.5799
Ti233     Ti     0.4181   0.2289   0.5657
Er234     Er     0.4387   0.2343   0.6701
Ti235     Ti     0.5819   0.2711   0.5657
Er236     Er     0.5613   0.2657   0.6701
Ti237     Ti     0.4789   0.3319   0.6843
Er238     Er     0.4843   0.3113   0.5799
Ti239     Ti     0.5819   0.7711   0.4343
Er240     Er     0.5613   0.7657   0.3299
Ti241     Ti     0.5211   0.6681   0.3157
Er242     Er     0.5157   0.6887   0.4201
Ti243     Ti     0.4789   0.8319   0.3157
Er244     Er     0.4843   0.8113   0.4201
Ti245     Ti     0.4181   0.7289   0.4343
Er246     Er     0.4387   0.7343   0.3299
V247     V     0.4129   0.5546   0.5045
V248     V     0.4955   0.5871   0.4454
V249     V     0.5045   0.4129   0.5546
V250     V     0.4454   0.4955   0.5871
V251     V     0.5546   0.5045   0.4129
V252     V     0.5871   0.4454   0.4955
Ti253     Ti     0.3157   0.5211   0.6681
Er254     Er     0.4201   0.5157   0.6887
Ti255     Ti     0.4343   0.5819   0.7711
Er256     Er     0.3299   0.5613   0.7657
Ti257     Ti     0.3157   0.4789   0.8319
Er258     Er     0.4201   0.4843   0.8113
Ti259     Ti     0.4343   0.4181   0.7289
Er260     Er     0.3299   0.4387   0.7343
V261     V     0.3046   0.6629   0.7455
V262     V     0.2455   0.6954   0.6629
V263     V     0.2545   0.8046   0.8371
V264     V     0.1954   0.8371   0.7545
V265     V     0.3371   0.7455   0.8046
V266     V     0.1629   0.7545   0.6954
Ti267     Ti     0.2289   0.5657   0.4181
Er268     Er     0.2343   0.6701   0.4387
Ti269     Ti     0.1681   0.6843   0.5211
Er270     Er     0.1887   0.5799   0.5157
Ti271     Ti     0.2711   0.5657   0.5819
Er272     Er     0.2657   0.6701   0.5613
Ti273     Ti     0.3319   0.6843   0.4789
Er274     Er     0.3113   0.5799   0.4843
V275     V     0.3046   0.1629   0.2545
V276     V     0.2455   0.1954   0.3371
V277     V     0.1629   0.2545   0.3046
V278     V     0.1954   0.3371   0.2455
V279     V     0.2545   0.3046   0.1629
V280     V     0.3371   0.2455   0.1954
Ti281     Ti     0.5211   0.3319   0.1843
Er282     Er     0.5157   0.3113   0.0799
Ti283     Ti     0.4181   0.2711   0.0657
Er284     Er     0.4387   0.2657   0.1701
Ti285     Ti     0.4789   0.1681   0.1843
Er286     Er     0.4843   0.1887   0.0799
Ti287     Ti     0.5819   0.2289   0.0657
Er288     Er     0.5613   0.2343   0.1701
loop_
_geom_bond_atom_site_label_1
_geom_bond_atom_site_label_2
_geom_bond_distance
_geom_bond_site_symmetry_2
_ccdc_geom_bond_type
Ti1     Er2    9.992   .     S
Ti1     Er6    9.994   1_556     S
Ti1     Er4    10.005   .     S
Ti1     Ti135    10.014   .     S
Er2     Ti3    9.994   .     S
Er2     V227    10.003   .     S
Er2     Ti5    10.005   1_556     S
Ti3     Er4    9.992   .     S
Ti3     Er8    10.005   1_556     S
Ti3     Ti77    10.014   .     S
Er4     Ti7    9.994   1_556     S
Er4     V33    10.003   1_556     S
Ti5     Er6    9.992   .     S
Ti5     Er8    9.994   .     S
Ti5     Er2    10.005   1_554     S
Ti5     Ti287    10.014   .     S
Er6     Ti1    9.994   1_554     S
Er6     V116    10.003   1_554     S
Er6     Ti7    10.005   .     S
Ti7     Er4    9.994   1_554     S
Ti7     Er8    9.992   .     S
Ti7     Ti141    10.014   .     S
Er8     V213    10.003   .     S
Er8     Ti3    10.005   1_554     S
Ti9     Er10    9.992   .     S
Ti9     Er12    9.994   .     S
Ti9     Er16    10.005   1_545     S
Ti9     Ti39    10.014   .     S
Er10     Ti15    9.994   1_545     S
Er10     V88    10.003   1_545     S
Er10     Ti11    10.005   .     S
Ti11     Er12    9.992   .     S
Ti11     Er14    9.994   1_545     S
Ti11     Ti81    10.014   .     S
Er12     V182    10.003   .     S
Er12     Ti13    10.005   1_545     S
Ti13     Er14    9.992   .     S
Ti13     Er16    9.994   .     S
Ti13     Er12    10.005   1_565     S
Ti13     Ti123    10.014   .     S
Er14     Ti11    9.994   1_565     S
Er14     V36    10.003   1_565     S
Er14     Ti15    10.005   .     S
Ti15     Er10    9.994   1_565     S
Ti15     Er16    9.992   .     S
Ti15     Ti105    10.014   .     S
Er16     V264    10.003   .     S
Er16     Ti9    10.005   1_565     S
Ti17     Er18    9.992   .     S
Ti17     Er20    9.994   .     S
Ti17     Er24    10.005   1_455     S
Ti17     Ti209    10.014   .     S
Er18     Ti23    9.994   1_455     S
Er18     V26    10.003   1_455     S
Er18     Ti19    10.005   .     S
Ti19     Er20    9.992   .     S
Ti19     Er22    9.994   1_455     S
Ti19     Ti119    10.014   .     S
Er20     V202    10.003   .     S
Er20     Ti21    10.005   1_455     S
Ti21     Er22    9.992   .     S
Ti21     Er24    9.994   .     S
Ti21     Er20    10.005   1_655     S
Ti21     Ti145    10.014   .     S
Er22     Ti19    9.994   1_655     S
Er22     V31    10.003   1_655     S
Er22     Ti23    10.005   .     S
Ti23     Er18    9.994   1_655     S
Ti23     Er24    9.992   .     S
Ti23     Ti63    10.014   .     S
Er24     V186    10.003   .     S
Er24     Ti17    10.005   1_655     S
V25     V27    10.0   .     S
V25     V26    10.0   1_556     S
V25     Er64    10.003   1_556     S
V26     Er18    10.003   1_655     S
V26     V25    10.0   1_554     S
V26     V30    10.0   1_655     S
V27     V28    10.0   1_655     S
V27     Er156    10.003   .     S
V28     V27    10.0   1_455     S
V28     V29    10.0   1_556     S
V28     Er76    10.003   1_455     S
V29     V28    10.0   1_554     S
V29     V30    10.0   .     S
V29     Er48    10.003   1_554     S
V30     V26    10.0   1_455     S
V30     Er208    10.003   .     S
V31     Er22    10.003   1_455     S
V31     V32    10.0   1_554     S
V31     V34    10.0   1_455     S
V32     V31    10.0   1_556     S
V32     V36    10.0   1_565     S
V32     Er120    10.003   1_556     S
V33     Er4    10.003   1_554     S
V33     V34    10.0   1_545     S
V33     V35    10.0   1_554     S
V34     V33    10.0   1_565     S
V34     V31    10.0   1_655     S
V34     Er142    10.003   1_565     S
V35     V36    10.0   1_655     S
V35     V33    10.0   1_556     S
V35     Er82    10.003   1_655     S
V36     Er14    10.003   1_545     S
V36     V35    10.0   1_455     S
V36     V32    10.0   1_545     S
Ti37     Er38    9.992   .     S
Ti37     Er44    9.994   .     S
Ti37     Er40    10.005   .     S
Ti37     Ti93    10.014   .     S
Er38     Ti39    9.994   .     S
Er38     V87    10.003   .     S
Er38     Ti43    10.005   .     S
Ti39     Er40    9.992   .     S
Ti39     Er42    10.005   .     S
Er40     Ti41    9.994   .     S
Er40     V179    10.003   .     S
Ti41     Er42    9.992   .     S
Ti41     Er44    10.005   .     S
Ti41     Ti233    10.014   .     S
Er42     Ti43    9.994   .     S
Er42     V125    10.003   .     S
Ti43     Er44    9.992   .     S
Ti43     Ti73    10.014   .     S
Er44     V276    10.003   .     S
Ti45     Er46    9.992   .     S
Ti45     Er52    9.994   1_556     S
Ti45     Er48    10.005   .     S
Ti45     Ti257    10.014   .     S
Er46     Ti47    9.994   .     S
Er46     V177    10.003   .     S
Er46     Ti51    10.005   1_556     S
Ti47     Er48    9.992   .     S
Ti47     Er50    10.005   1_556     S
Ti47     Ti79    10.014   .     S
Er48     Ti49    9.994   1_556     S
Er48     V29    10.003   1_556     S
Ti49     Er48    9.994   1_554     S
Ti49     Er50    9.992   .     S
Ti49     Er52    10.005   .     S
Ti49     Ti207    10.014   .     S
Er50     Ti51    9.994   .     S
Er50     V279    10.003   .     S
Er50     Ti47    10.005   1_554     S
Ti51     Er52    9.992   .     S
Ti51     Er46    10.005   1_554     S
Ti51     Ti283    10.014   .     S
Er52     Ti45    9.994   1_554     S
Er52     V58    10.003   1_554     S
V53     V55    10.0   1_556     S
V53     V54    10.0   .     S
V53     Er170    10.003   .     S
V54     V58    10.0   .     S
V54     Er258    10.003   .     S
V55     V53    10.0   1_554     S
V55     V57    10.0   .     S
V55     Er60    10.003   1_554     S
V56     V58    10.0   1_554     S
V56     V57    10.0   .     S
V56     Er282    10.003   .     S
V57     Er196    10.003   .     S
V58     Er52    10.003   1_556     S
V58     V56    10.0   1_556     S
Ti59     Er60    9.992   .     S
Ti59     Er62    9.994   .     S
Ti59     Er66    10.005   1_556     S
Ti59     Ti175    10.014   .     S
Er60     Ti65    9.994   1_556     S
Er60     V55    10.003   1_556     S
Er60     Ti61    10.005   .     S
Ti61     Er62    9.992   .     S
Ti61     Er64    9.994   1_556     S
Ti61     Ti155    10.014   .     S
Er62     V168    10.003   .     S
Er62     Ti63    10.005   1_556     S
Ti63     Er64    9.992   .     S
Ti63     Er66    9.994   .     S
Ti63     Er62    10.005   1_554     S
Er64     Ti61    9.994   1_554     S
Er64     V25    10.003   1_554     S
Er64     Ti65    10.005   .     S
Ti65     Er60    9.994   1_554     S
Ti65     Er66    9.992   .     S
Ti65     Ti195    10.014   .     S
Er66     V188    10.003   .     S
Er66     Ti59    10.005   1_554     S
Ti67     Er68    9.992   .     S
Ti67     Er74    9.994   1_565     S
Ti67     Er70    10.005   .     S
Ti67     Ti243    10.014   .     S
Er68     Ti69    9.994   .     S
Er68     V199    10.003   .     S
Er68     Ti73    10.005   1_565     S
Ti69     Er70    9.992   .     S
Ti69     Er72    10.005   1_565     S
Ti69     Ti117    10.014   .     S
Er70     Ti71    9.994   1_565     S
Er70     V113    10.003   1_565     S
Ti71     Er70    9.994   1_545     S
Ti71     Er72    9.992   .     S
Ti71     Er74    10.005   .     S
Ti71     Ti285    10.014   .     S
Er72     Ti73    9.994   .     S
Er72     V275    10.003   .     S
Er72     Ti69    10.005   1_545     S
Ti73     Er74    9.992   .     S
Ti73     Er68    10.005   1_545     S
Er74     Ti67    9.994   1_545     S
Er74     V127    10.003   1_545     S
Ti75     Er76    9.992   .     S
Ti75     Er78    9.994   .     S
Ti75     Er80    10.005   1_655     S
Ti75     Ti161    10.014   .     S
Er76     Ti79    9.994   1_655     S
Er76     V28    10.003   1_655     S
Er76     Ti77    10.005   .     S
Ti77     Er78    9.992   .     S
Ti77     Er82    9.994   1_655     S
Er78     V228    10.003   .     S
Er78     Ti81    10.005   1_655     S
Ti79     Er76    9.994   1_455     S
Ti79     Er80    9.992   .     S
Ti79     Er82    10.005   .     S
Er80     Ti81    9.994   .     S
Er80     V181    10.003   .     S
Er80     Ti75    10.005   1_455     S
Ti81     Er82    9.992   .     S
Ti81     Er78    10.005   1_455     S
Er82     Ti77    9.994   1_455     S
Er82     V35    10.003   1_455     S
V83     V84    10.0   1_545     S
V83     V86    10.0   1_655     S
V83     Er144    10.003   1_545     S
V84     V83    10.0   1_565     S
V84     V85    10.0   .     S
V84     Er152    10.003   .     S
V85     V88    10.0   1_655     S
V85     Er106    10.003   1_655     S
V86     V83    10.0   1_455     S
V86     V87    10.0   .     S
V86     Er92    10.003   1_455     S
V87     V88    10.0   1_545     S
V88     Er10    10.003   1_565     S
V88     V85    10.0   1_455     S
V88     V87    10.0   1_565     S
Ti89     Er90    9.992   .     S
Ti89     Er96    9.994   1_655     S
Ti89     Er92    10.005   .     S
Ti89     Ti217    10.014   .     S
Er90     Ti91    9.994   .     S
Er90     V211    10.003   .     S
Er90     Ti95    10.005   1_655     S
Ti91     Er92    9.992   .     S
Ti91     Er94    10.005   1_655     S
Ti91     Ti139    10.014   .     S
Er92     Ti93    9.994   1_655     S
Er92     V86    10.003   1_655     S
Ti93     Er92    9.994   1_455     S
Ti93     Er94    9.992   .     S
Ti93     Er96    10.005   .     S
Er94     Ti95    9.994   .     S
Er94     V277    10.003   .     S
Er94     Ti91    10.005   1_455     S
Ti95     Er96    9.992   .     S
Ti95     Er90    10.005   1_455     S
Ti95     Ti205    10.014   .     S
Er96     Ti89    9.994   1_455     S
Er96     V102    10.003   1_455     S
V97     V99    10.0   .     S
V97     V98    10.0   .     S
V97     Er270    10.003   .     S
V98     V100    10.0   1_455     S
V98     Er108    10.003   1_455     S
V99     V102    10.0   1_455     S
V99     Er204    10.003   .     S
V100     V98    10.0   1_655     S
V100     V101    10.0   .     S
V100     Er160    10.003   .     S
V101     V102    10.0   .     S
V101     Er218    10.003   .     S
V102     Er96    10.003   1_655     S
V102     V99    10.0   1_655     S
Ti103     Er104    9.992   .     S
Ti103     Er108    9.994   1_455     S
Ti103     Er106    10.005   .     S
Ti103     Ti269    10.014   .     S
Er104     Ti105    9.994   .     S
Er104     V266    10.003   .     S
Er104     Ti107    10.005   1_455     S
Ti105     Er106    9.992   .     S
Ti105     Er110    10.005   1_455     S
Er106     Ti109    9.994   1_455     S
Er106     V85    10.003   1_455     S
Ti107     Er108    9.992   .     S
Ti107     Er110    9.994   .     S
Ti107     Er104    10.005   1_655     S
Ti107     Ti157    10.014   .     S
Er108     Ti103    9.994   1_655     S
Er108     V98    10.003   1_655     S
Er108     Ti109    10.005   .     S
Ti109     Er106    9.994   1_655     S
Ti109     Er110    9.992   .     S
Ti109     Ti151    10.014   .     S
Er110     V164    10.003   .     S
Er110     Ti105    10.005   1_655     S
V111     V116    10.0   1_565     S
V111     V114    10.0   .     S
V111     Er136    10.003   1_565     S
V112     V116    10.0   1_554     S
V112     V113    10.0   .     S
V112     Er286    10.003   .     S
V113     Er70    10.003   1_545     S
V113     V115    10.0   1_545     S
V114     V115    10.0   1_556     S
V114     Er174    10.003   .     S
V115     V113    10.0   1_565     S
V115     V114    10.0   1_554     S
V115     Er122    10.003   1_554     S
V116     Er6    10.003   1_556     S
V116     V111    10.0   1_545     S
V116     V112    10.0   1_556     S
Ti117     Er118    9.992   .     S
Ti117     Er122    9.994   1_554     S
Ti117     Er120    10.005   .     S
Er118     Ti119    9.994   .     S
Er118     V198    10.003   .     S
Er118     Ti121    10.005   1_554     S
Ti119     Er120    9.992   .     S
Ti119     Er124    10.005   1_554     S
Er120     Ti123    9.994   1_554     S
Er120     V32    10.003   1_554     S
Ti121     Er122    9.992   .     S
Ti121     Er124    9.994   .     S
Ti121     Er118    10.005   1_556     S
Ti121     Ti171    10.014   .     S
Er122     Ti117    9.994   1_556     S
Er122     V115    10.003   1_556     S
Er122     Ti123    10.005   .     S
Ti123     Er120    9.994   1_556     S
Ti123     Er124    9.992   .     S
Er124     V263    10.003   .     S
Er124     Ti119    10.005   1_556     S
V125     V127    10.0   1_545     S
V125     V128    10.0   .     S
V126     V130    10.0   .     S
V126     V127    10.0   .     S
V126     Er244    10.003   .     S
V127     Er74    10.003   1_565     S
V127     V125    10.0   1_565     S
V128     V129    10.0   .     S
V128     Er232    10.003   .     S
V129     V130    10.0   1_545     S
V129     Er134    10.003   1_545     S
V130     V129    10.0   1_565     S
V130     Er148    10.003   .     S
Ti131     Er132    9.992   .     S
Ti131     Er134    9.994   1_545     S
Ti131     Er136    10.005   .     S
Ti131     Ti231    10.014   .     S
Er132     Ti135    9.994   .     S
Er132     V226    10.003   .     S
Er132     Ti133    10.005   1_545     S
Ti133     Er134    9.992   .     S
Ti133     Er138    9.994   .     S
Ti133     Er132    10.005   1_565     S
Ti133     Ti153    10.014   .     S
Er134     Ti131    9.994   1_565     S
Er134     V129    10.003   1_565     S
Er134     Ti137    10.005   .     S
Ti135     Er136    9.992   .     S
Ti135     Er138    10.005   1_545     S
Er136     Ti137    9.994   1_545     S
Er136     V111    10.003   1_545     S
Ti137     Er136    9.994   1_565     S
Ti137     Er138    9.992   .     S
Ti137     Ti173    10.014   .     S
Er138     V166    10.003   .     S
Er138     Ti135    10.005   1_565     S
Ti139     Er140    9.992   .     S
Ti139     Er144    9.994   1_545     S
Ti139     Er142    10.005   .     S
Er140     Ti141    9.994   .     S
Er140     V212    10.003   .     S
Er140     Ti143    10.005   1_545     S
Ti141     Er142    9.992   .     S
Ti141     Er146    10.005   1_545     S
Er142     Ti145    9.994   1_545     S
Er142     V34    10.003   1_545     S
Ti143     Er144    9.992   .     S
Ti143     Er146    9.994   .     S
Ti143     Er140    10.005   1_565     S
Ti143     Ti149    10.014   .     S
Er144     Ti139    9.994   1_565     S
Er144     V83    10.003   1_565     S
Er144     Ti145    10.005   .     S
Ti145     Er142    9.994   1_565     S
Ti145     Er146    9.992   .     S
Er146     V185    10.003   .     S
Er146     Ti141    10.005   1_565     S
Ti147     Er148    9.992   .     S
Ti147     Er150    9.994   .     S
Ti147     Er154    10.005   .     S
Ti147     Ti239    10.014   .     S
Er148     Ti153    9.994   .     S
Er148     Ti149    10.005   .     S
Ti149     Er150    9.992   .     S
Ti149     Er152    9.994   .     S
Er150     V187    10.003   .     S
Er150     Ti151    10.005   .     S
Ti151     Er152    9.992   .     S
Ti151     Er154    9.994   .     S
Er152     Ti153    10.005   .     S
Ti153     Er154    9.992   .     S
Er154     V163    10.003   .     S
Ti155     Er156    9.992   .     S
Ti155     Er158    9.994   .     S
Ti155     Er162    10.005   .     S
Er156     Ti161    9.994   .     S
Er156     Ti157    10.005   .     S
Ti157     Er158    9.992   .     S
Ti157     Er160    9.994   .     S
Er158     V167    10.003   .     S
Er158     Ti159    10.005   .     S
Ti159     Er160    9.992   .     S
Ti159     Er162    9.994   .     S
Ti159     Ti219    10.014   .     S
Er160     Ti161    10.005   .     S
Ti161     Er162    9.992   .     S
Er162     V229    10.003   .     S
V163     V166    10.0   .     S
V163     V164    10.0   .     S
V164     V167    10.0   .     S
V165     V168    10.0   .     S
V165     V166    10.0   .     S
V165     Er176    10.003   .     S
V167     V168    10.0   .     S
Ti169     Er170    9.992   .     S
Ti169     Er172    9.994   .     S
Ti169     Er176    10.005   .     S
Ti169     Ti255    10.014   .     S
Er170     Ti175    9.994   .     S
Er170     Ti171    10.005   .     S
Ti171     Er172    9.992   .     S
Ti171     Er174    9.994   .     S
Er172     V265    10.003   .     S
Er172     Ti173    10.005   .     S
Ti173     Er174    9.992   .     S
Ti173     Er176    9.994   .     S
Er174     Ti175    10.005   .     S
Ti175     Er176    9.992   .     S
V177     V181    10.0   .     S
V177     V178    10.0   .     S
V178     V180    10.0   .     S
V178     Er260    10.003   .     S
V179     V182    10.0   .     S
V179     V180    10.0   .     S
V180     Er234    10.003   .     S
V181     V182    10.0   .     S
V183     V187    10.0   .     S
V183     V184    10.0   .     S
V183     Er240    10.003   .     S
V184     V188    10.0   .     S
V184     Er190    10.003   .     S
V185     V187    10.0   .     S
V185     V186    10.0   .     S
V186     V188    10.0   .     S
Ti189     Er190    9.992   .     S
Ti189     Er192    9.994   .     S
Ti189     Er196    10.005   .     S
Ti189     Ti241    10.014   .     S
Er190     Ti195    9.994   .     S
Er190     Ti191    10.005   .     S
Ti191     Er192    9.992   .     S
Ti191     Er194    9.994   .     S
Ti191     Ti223    10.014   .     S
Er192     V251    10.003   .     S
Er192     Ti193    10.005   .     S
Ti193     Er194    9.992   .     S
Ti193     Er196    9.994   .     S
Ti193     Ti281    10.014   .     S
Er194     V215    10.003   .     S
Er194     Ti195    10.005   .     S
Ti195     Er196    9.992   .     S
V197     V201    10.0   .     S
V197     V199    10.0   .     S
V197     Er246    10.003   .     S
V198     V202    10.0   .     S
V198     V199    10.0   .     S
V200     V202    10.0   .     S
V200     V201    10.0   .     S
V200     Er210    10.003   .     S
V201     Er268    10.003   .     S
Ti203     Er204    9.992   .     S
Ti203     Er210    9.994   .     S
Ti203     Er206    10.005   .     S
Ti203     Ti267    10.014   .     S
Er204     Ti205    9.994   .     S
Er204     Ti209    10.005   .     S
Ti205     Er206    9.992   .     S
Ti205     Er208    10.005   .     S
Er206     Ti207    9.994   .     S
Er206     V278    10.003   .     S
Ti207     Er208    9.992   .     S
Ti207     Er210    10.005   .     S
Er208     Ti209    9.994   .     S
Ti209     Er210    9.992   .     S
V211     V214    10.0   .     S
V211     V212    10.0   .     S
V212     V213    10.0   .     S
V213     V216    10.0   .     S
V214     V215    10.0   .     S
V214     Er224    10.003   .     S
V215     V216    10.0   .     S
V216     Er288    10.003   .     S
Ti217     Er218    9.992   .     S
Ti217     Er224    9.994   .     S
Ti217     Er220    10.005   .     S
Er218     Ti219    9.994   .     S
Er218     Ti223    10.005   .     S
Ti219     Er220    9.992   .     S
Ti219     Er222    10.005   .     S
Er220     Ti221    9.994   .     S
Er220     V230    10.003   .     S
Ti221     Er222    9.992   .     S
Ti221     Er224    10.005   .     S
Ti221     Ti235    10.014   .     S
Er222     Ti223    9.994   .     S
Er222     V252    10.003   .     S
Ti223     Er224    9.992   .     S
V225     V230    10.0   .     S
V225     V226    10.0   .     S
V225     Er236    10.003   .     S
V226     V227    10.0   .     S
V227     V228    10.0   .     S
V228     V229    10.0   .     S
V229     V230    10.0   .     S
Ti231     Er232    9.992   .     S
Ti231     Er236    9.994   .     S
Ti231     Er234    10.005   .     S
Er232     Ti233    9.994   .     S
Er232     Ti235    10.005   .     S
Ti233     Er234    9.992   .     S
Ti233     Er238    10.005   .     S
Er234     Ti237    9.994   .     S
Ti235     Er236    9.992   .     S
Ti235     Er238    9.994   .     S
Er236     Ti237    10.005   .     S
Ti237     Er238    9.992   .     S
Ti237     Ti259    10.014   .     S
Er238     V249    10.003   .     S
Ti239     Er240    9.992   .     S
Ti239     Er244    9.994   .     S
Ti239     Er242    10.005   .     S
Er240     Ti241    9.994   .     S
Er240     Ti243    10.005   .     S
Ti241     Er242    9.992   .     S
Ti241     Er246    10.005   .     S
Er242     Ti245    9.994   .     S
Er242     V248    10.003   .     S
Ti243     Er244    9.992   .     S
Ti243     Er246    9.994   .     S
Er244     Ti245    10.005   .     S
Ti245     Er246    9.992   .     S
Ti245     Ti273    10.014   .     S
V247     V250    10.0   .     S
V247     V248    10.0   .     S
V247     Er274    10.003   .     S
V248     V251    10.0   .     S
V249     V252    10.0   .     S
V249     V250    10.0   .     S
V250     Er254    10.003   .     S
V251     V252    10.0   .     S
Ti253     Er254    9.992   .     S
Ti253     Er256    9.994   .     S
Ti253     Er260    10.005   .     S
Ti253     Ti271    10.014   .     S
Er254     Ti259    9.994   .     S
Er254     Ti255    10.005   .     S
Ti255     Er256    9.992   .     S
Ti255     Er258    9.994   .     S
Er256     V261    10.003   .     S
Er256     Ti257    10.005   .     S
Ti257     Er258    9.992   .     S
Ti257     Er260    9.994   .     S
Er258     Ti259    10.005   .     S
Ti259     Er260    9.992   .     S
V261     V265    10.0   .     S
V261     V262    10.0   .     S
V262     V266    10.0   .     S
V262     Er272    10.003   .     S
V263     V265    10.0   .     S
V263     V264    10.0   .     S
V264     V266    10.0   .     S
Ti267     Er268    9.992   .     S
Ti267     Er270    9.994   .     S
Ti267     Er274    10.005   .     S
Er268     Ti273    9.994   .     S
Er268     Ti269    10.005   .     S
Ti269     Er270    9.992   .     S
Ti269     Er272    9.994   .     S
Er270     Ti271    10.005   .     S
Ti271     Er272    9.992   .     S
Ti271     Er274    9.994   .     S
Er272     Ti273    10.005   .     S
Ti273     Er274    9.992   .     S
V275     V276    10.0   .     S
V275     V280    10.0   .     S
V276     V277    10.0   .     S
V277     V278    10.0   .     S
V278     V279    10.0   .     S
V279     V280    10.0   .     S
V280     Er284    10.003   .     S
Ti281     Er282    9.992   .     S
Ti281     Er288    9.994   .     S
Ti281     Er284    10.005   .     S
Er282     Ti283    9.994   .     S
Er282     Ti287    10.005   .     S
Ti283     Er284    9.992   .     S
Ti283     Er286    10.005   .     S
Er284     Ti285    9.994   .     S
Ti285     Er286    9.992   .     S
Ti285     Er288    10.005   .     S
Er286     Ti287    9.994   .     S
Ti287     Er288    9.992   .     S
