data_gara
_audit_creation_date              2020-02-04
_audit_creation_method            'Pymatgen'
_symmetry_space_group_name_H-M    'P1'
_symmetry_Int_Tables_number       1
loop_
_symmetry_equiv_pos_as_xyz
  x,y,z
_cell_length_a                    80.7236
_cell_length_b                    80.7236
_cell_length_c                    80.7236
_cell_angle_alpha                 90.0
_cell_angle_beta                 90.0
_cell_angle_gamma                 90.0
loop_
_atom_site_label
_atom_site_type_symbol
_atom_site_fract_x
_atom_site_fract_y
_atom_site_fract_z
V1     V     0.757   0.3312   0.5616
V2     V     0.743   0.3312   0.4384
V3     V     0.6884   0.4188   0.507
V4     V     0.8116   0.4188   0.493
V5     V     0.0812   0.507   0.3116
V6     V     0.0812   0.493   0.1884
V7     V     0.1688   0.5616   0.243
V8     V     0.1688   0.4384   0.257
V9     V     0.3116   0.0812   0.507
V10     V     0.1884   0.0812   0.493
V11     V     0.257   0.1688   0.4384
V12     V     0.243   0.1688   0.5616
V13     V     0.3312   0.5616   0.757
V14     V     0.3312   0.4384   0.743
V15     V     0.4188   0.507   0.6884
V16     V     0.4188   0.493   0.8116
V17     V     0.9188   0.493   0.6884
V18     V     0.9188   0.507   0.8116
V19     V     0.8312   0.5616   0.743
V20     V     0.8312   0.4384   0.757
V21     V     0.1688   0.9384   0.743
V22     V     0.1688   0.0616   0.757
V23     V     0.0812   0.007   0.6884
V24     V     0.0812   0.993   0.8116
V25     V     0.1884   0.9188   0.007
V26     V     0.3116   0.9188   0.993
V27     V     0.243   0.8312   0.9384
V28     V     0.257   0.8312   0.0616
V29     V     0.9384   0.743   0.1688
V30     V     0.0616   0.757   0.1688
V31     V     0.007   0.6884   0.0812
V32     V     0.993   0.8116   0.0812
Er33     Er     0.9822   0.9155   0.0147
Er34     Er     0.9853   0.0178   0.0845
Er35     Er     0.0147   0.9822   0.9155
Er36     Er     0.0845   0.9853   0.0178
Er37     Er     0.9155   0.0147   0.9822
Er38     Er     0.0178   0.0845   0.9853
V39     V     0.5812   0.507   0.1884
V40     V     0.5812   0.493   0.3116
V41     V     0.6688   0.5616   0.257
V42     V     0.6688   0.4384   0.243
Er43     Er     0.8345   0.2678   0.2647
Er44     Er     0.6655   0.2322   0.2353
Er45     Er     0.7322   0.2647   0.3345
Er46     Er     0.7353   0.3345   0.2322
Er47     Er     0.7647   0.1655   0.2678
Er48     Er     0.7678   0.2353   0.1655
V49     V     0.743   0.1688   0.9384
V50     V     0.757   0.1688   0.0615
V51     V     0.6884   0.0812   0.007
V52     V     0.8116   0.0812   0.993
Er53     Er     0.0845   0.0147   0.4822
Er54     Er     0.9822   0.0845   0.4853
Er55     Er     0.9853   0.9822   0.4155
Er56     Er     0.9155   0.9853   0.5178
Er57     Er     0.0147   0.0178   0.5845
Er58     Er     0.0178   0.9155   0.5147
V59     V     0.8312   0.9384   0.243
V60     V     0.8312   0.0616   0.257
V61     V     0.9188   0.007   0.1884
V62     V     0.9188   0.993   0.3116
V63     V     0.4384   0.743   0.3312
V64     V     0.5616   0.757   0.3312
V65     V     0.507   0.6884   0.4188
V66     V     0.493   0.8116   0.4188
V67     V     0.6884   0.9188   0.493
V68     V     0.8116   0.9188   0.507
V69     V     0.743   0.8312   0.5616
V70     V     0.757   0.8312   0.4384
Er71     Er     0.6655   0.7678   0.2647
Er72     Er     0.7647   0.8345   0.2322
Er73     Er     0.7678   0.7647   0.3345
Er74     Er     0.8345   0.7322   0.2353
Er75     Er     0.7353   0.6655   0.2678
Er76     Er     0.7322   0.7353   0.1655
V77     V     0.6884   0.5812   0.993
V78     V     0.8116   0.5812   0.007
V79     V     0.757   0.6688   0.9384
V80     V     0.743   0.6688   0.0616
V81     V     0.493   0.6884   0.9188
V82     V     0.507   0.8116   0.9188
V83     V     0.5616   0.743   0.8312
V84     V     0.4384   0.757   0.8312
Er85     Er     0.2647   0.6655   0.7678
Er86     Er     0.3345   0.7678   0.7647
Er87     Er     0.2322   0.7647   0.8345
Er88     Er     0.2353   0.8345   0.7322
Er89     Er     0.2678   0.7353   0.6655
Er90     Er     0.1655   0.7322   0.7353
V91     V     0.993   0.6884   0.5812
V92     V     0.007   0.8116   0.5812
V93     V     0.9384   0.757   0.6688
V94     V     0.0616   0.743   0.6688
V95     V     0.507   0.1884   0.5812
V96     V     0.493   0.3116   0.5812
V97     V     0.5616   0.257   0.6688
V98     V     0.4384   0.243   0.6688
Er99     Er     0.5845   0.5147   0.9822
Er100     Er     0.4822   0.5845   0.9853
Er101     Er     0.4853   0.4822   0.9155
Er102     Er     0.5178   0.4155   0.0147
Er103     Er     0.4155   0.4853   0.0178
Er104     Er     0.5147   0.5178   0.0845
V105     V     0.493   0.1884   0.0812
V106     V     0.507   0.3116   0.0812
V107     V     0.4384   0.257   0.1688
V108     V     0.5616   0.243   0.1688
Er109     Er     0.2678   0.2647   0.8345
Er110     Er     0.1655   0.2678   0.7647
Er111     Er     0.2353   0.1655   0.7678
Er112     Er     0.3345   0.2322   0.7353
Er113     Er     0.2322   0.2353   0.6655
Er114     Er     0.2647   0.3345   0.7322
Er115     Er     0.8345   0.7678   0.7353
Er116     Er     0.7322   0.7647   0.6655
Er117     Er     0.7353   0.8345   0.7678
Er118     Er     0.6655   0.7322   0.7647
Er119     Er     0.7678   0.7353   0.8345
Er120     Er     0.7647   0.6655   0.7322
Er121     Er     0.7678   0.2647   0.6655
Er122     Er     0.8345   0.2322   0.7647
Er123     Er     0.7647   0.3345   0.7678
Er124     Er     0.7322   0.2353   0.8345
Er125     Er     0.6655   0.2678   0.7353
Er126     Er     0.7353   0.1655   0.7322
V127     V     0.5812   0.993   0.6884
V128     V     0.5812   0.007   0.8116
V129     V     0.6688   0.9384   0.757
V130     V     0.6688   0.0616   0.743
V131     V     0.257   0.3312   0.9384
V132     V     0.243   0.3312   0.0616
V133     V     0.1884   0.4188   0.993
V134     V     0.3116   0.4188   0.007
Er135     Er     0.9822   0.4155   0.9853
Er136     Er     0.9155   0.5147   0.0178
Er137     Er     0.0178   0.5845   0.0147
Er138     Er     0.9853   0.5178   0.9155
Er139     Er     0.0845   0.4853   0.9822
Er140     Er     0.0147   0.4822   0.0845
V141     V     0.007   0.1884   0.9188
V142     V     0.993   0.3116   0.9188
V143     V     0.9384   0.243   0.8312
V144     V     0.0616   0.257   0.8312
Er145     Er     0.4155   0.0147   0.5178
Er146     Er     0.4822   0.9155   0.4853
Er147     Er     0.4853   0.0178   0.4155
Er148     Er     0.5845   0.9853   0.4822
Er149     Er     0.5147   0.9822   0.5845
Er150     Er     0.5178   0.0845   0.5147
Er151     Er     0.4155   0.9853   0.9822
Er152     Er     0.5147   0.0178   0.9155
Er153     Er     0.5845   0.0147   0.0178
Er154     Er     0.5178   0.9155   0.9853
Er155     Er     0.4822   0.0845   0.0147
Er156     Er     0.4853   0.9822   0.0845
V157     V     0.3312   0.9384   0.257
V158     V     0.3312   0.0616   0.243
V159     V     0.4188   0.007   0.3116
V160     V     0.4188   0.993   0.1884
Er161     Er     0.4822   0.4155   0.5147
Er162     Er     0.5845   0.4853   0.5178
Er163     Er     0.4155   0.5147   0.4822
Er164     Er     0.4853   0.5178   0.5845
Er165     Er     0.5178   0.5845   0.4853
Er166     Er     0.5147   0.4822   0.4155
Er167     Er     0.2647   0.8345   0.2678
Er168     Er     0.1655   0.7678   0.2353
Er169     Er     0.2678   0.7647   0.1655
Er170     Er     0.3345   0.7322   0.2647
Er171     Er     0.2322   0.7353   0.3345
Er172     Er     0.2353   0.6655   0.2322
Er173     Er     0.9853   0.4822   0.5845
Er174     Er     0.9155   0.4853   0.4822
Er175     Er     0.0178   0.4155   0.4853
Er176     Er     0.9822   0.5845   0.5147
Er177     Er     0.0147   0.5178   0.4155
Er178     Er     0.0845   0.5147   0.5178
V179     V     0.257   0.6688   0.5616
V180     V     0.243   0.6688   0.4384
V181     V     0.3116   0.5812   0.493
V182     V     0.1884   0.5812   0.507
Er183     Er     0.2322   0.2647   0.1655
Er184     Er     0.2353   0.3345   0.2678
Er185     Er     0.1655   0.2322   0.2647
Er186     Er     0.2678   0.2353   0.3345
Er187     Er     0.2647   0.1655   0.2322
Er188     Er     0.3345   0.2678   0.2353
V189     V     0.9384   0.257   0.3312
V190     V     0.0616   0.243   0.3312
V191     V     0.007   0.3116   0.4188
V192     V     0.993   0.1884   0.4188
loop_
_geom_bond_atom_site_label_1
_geom_bond_atom_site_label_2
_geom_bond_distance
_geom_bond_site_symmetry_2
_ccdc_geom_bond_type
V1     Er121    10.0   .     S
V1     V2    10.0   .     S
V1     V4    10.0   .     S
V1     V3    10.0   .     S
V2     Er45    10.0   .     S
V2     V4    10.0   .     S
V2     V3    10.0   .     S
V3     Er162    10.0   .     S
V3     V4    10.0   .     S
V4     Er174    10.0   .     S
V5     Er177    10.0   .     S
V5     V6    10.0   .     S
V5     V8    10.0   .     S
V5     V7    10.0   .     S
V6     Er140    10.0   .     S
V6     V7    10.0   .     S
V6     V8    10.0   .     S
V7     Er172    10.0   .     S
V7     V8    10.0   .     S
V8     Er184    10.0   .     S
V9     Er145    10.0   .     S
V9     V10    10.0   .     S
V9     V11    10.0   .     S
V9     V12    10.0   .     S
V10     Er53    10.0   .     S
V10     V12    10.0   .     S
V10     V11    10.0   .     S
V11     Er186    10.0   .     S
V11     V12    10.0   .     S
V12     Er113    10.0   .     S
V13     Er85    10.0   .     S
V13     V14    10.0   .     S
V13     V16    10.0   .     S
V13     V15    10.0   .     S
V14     Er114    10.0   .     S
V14     V15    10.0   .     S
V14     V16    10.0   .     S
V15     Er164    10.0   .     S
V15     V16    10.0   .     S
V16     Er101    10.0   .     S
V17     Er173    10.0   .     S
V17     V18    10.0   .     S
V17     V19    10.0   .     S
V17     V20    10.0   .     S
V18     Er138    10.0   .     S
V18     V20    10.0   .     S
V18     V19    10.0   .     S
V19     Er120    10.0   .     S
V19     V20    10.0   .     S
V20     Er123    10.0   .     S
V21     Er88    10.0   .     S
V21     V22    10.0   1_565     S
V21     V24    10.0   .     S
V21     V23    10.0   1_565     S
V22     Er111    10.0   .     S
V22     V21    10.0   1_545     S
V22     V23    10.0   .     S
V22     V24    10.0   1_545     S
V23     Er57    10.0   .     S
V23     V24    10.0   1_545     S
V23     V21    10.0   1_545     S
V24     Er35    10.0   .     S
V24     V23    10.0   1_565     S
V24     V22    10.0   1_565     S
V25     Er36    10.0   .     S
V25     V26    10.0   1_554     S
V25     V28    10.0   .     S
V25     V27    10.0   1_554     S
V26     Er151    10.0   .     S
V26     V25    10.0   1_556     S
V26     V28    10.0   1_556     S
V26     V27    10.0   .     S
V27     Er87    10.0   .     S
V27     V28    10.0   1_556     S
V27     V25    10.0   1_556     S
V28     Er169    10.0   .     S
V28     V27    10.0   1_554     S
V28     V26    10.0   1_554     S
V29     Er74    10.0   .     S
V29     V30    10.0   1_655     S
V29     V32    10.0   .     S
V29     V31    10.0   1_655     S
V30     Er168    10.0   .     S
V30     V29    10.0   1_455     S
V30     V31    10.0   .     S
V30     V32    10.0   1_455     S
V31     Er137    10.0   .     S
V31     V32    10.0   1_455     S
V31     V29    10.0   1_455     S
V32     Er33    10.0   .     S
V32     V31    10.0   1_655     S
V32     V30    10.0   1_655     S
Er33     Er37    9.999   1_564     S
Er33     Er35    9.999   1_654     S
Er33     Er36    10.0   1_655     S
Er33     Er34    10.0   1_565     S
Er34     Er37    10.0   1_554     S
Er34     Er38    9.999   1_654     S
Er34     Er36    9.999   1_645     S
Er34     Er33    10.0   1_545     S
Er34     V61    10.0   .     S
Er35     Er33    9.999   1_456     S
Er35     Er37    9.999   1_465     S
Er35     Er38    10.0   1_565     S
Er35     Er36    10.0   1_556     S
Er36     Er33    10.0   1_455     S
Er36     Er34    9.999   1_465     S
Er36     Er38    9.999   1_564     S
Er36     Er35    10.0   1_554     S
Er37     Er33    9.999   1_546     S
Er37     Er34    10.0   1_556     S
Er37     Er38    10.0   1_655     S
Er37     Er35    9.999   1_645     S
Er37     V52    10.0   .     S
Er38     Er34    9.999   1_456     S
Er38     Er37    10.0   1_455     S
Er38     Er35    10.0   1_545     S
Er38     Er36    9.999   1_546     S
Er38     V141    10.0   .     S
V39     Er104    10.0   .     S
V39     V40    10.0   .     S
V39     V42    10.0   .     S
V39     V41    10.0   .     S
V40     Er166    10.0   .     S
V40     V42    10.0   .     S
V40     V41    10.0   .     S
V41     Er75    10.0   .     S
V41     V42    10.0   .     S
V42     Er46    10.0   .     S
Er43     Er46    9.999   .     S
Er43     Er47    10.0   .     S
Er43     Er45    10.0   .     S
Er43     Er48    9.999   .     S
Er43     V189    10.0   .     S
Er44     Er47    9.999   .     S
Er44     Er45    9.999   .     S
Er44     Er46    10.0   .     S
Er44     Er48    10.0   .     S
Er44     V108    10.0   .     S
Er45     Er46    10.0   .     S
Er45     Er47    9.999   .     S
Er46     Er48    9.999   .     S
Er47     Er48    10.0   .     S
Er47     V60    10.0   .     S
Er48     V50    10.0   .     S
V49     Er124    10.0   .     S
V49     V50    10.0   1_556     S
V49     V52    10.0   .     S
V49     V51    10.0   1_556     S
V50     V49    10.0   1_554     S
V50     V52    10.0   1_554     S
V50     V51    10.0   .     S
V51     V49    10.0   1_554     S
V51     Er153    10.0   .     S
V51     V52    10.0   1_554     S
V52     V50    10.0   1_556     S
V52     V51    10.0   1_556     S
Er53     Er55    9.999   1_445     S
Er53     Er54    10.0   1_455     S
Er53     Er58    9.999   1_545     S
Er53     Er57    10.0   .     S
Er54     Er55    10.0   1_545     S
Er54     Er53    10.0   1_655     S
Er54     Er56    9.999   1_545     S
Er54     Er57    9.999   1_655     S
Er54     V192    10.0   .     S
Er55     Er53    9.999   1_665     S
Er55     Er54    10.0   1_565     S
Er55     Er58    9.999   1_655     S
Er55     Er56    10.0   .     S
Er55     V62    10.0   .     S
Er56     Er54    9.999   1_565     S
Er56     Er58    10.0   1_655     S
Er56     Er57    9.999   1_665     S
Er56     V68    10.0   .     S
Er57     Er56    9.999   1_445     S
Er57     Er58    10.0   1_545     S
Er57     Er54    9.999   1_455     S
Er58     Er55    9.999   1_455     S
Er58     Er56    10.0   1_455     S
Er58     Er57    10.0   1_565     S
Er58     Er53    9.999   1_565     S
Er58     V92    10.0   .     S
V59     Er72    10.0   .     S
V59     V60    10.0   1_565     S
V59     V61    10.0   1_565     S
V59     V62    10.0   .     S
V60     V59    10.0   1_545     S
V60     V61    10.0   .     S
V60     V62    10.0   1_545     S
V61     V62    10.0   1_545     S
V61     V59    10.0   1_545     S
V62     V61    10.0   1_565     S
V62     V60    10.0   1_565     S
V63     Er170    10.0   .     S
V63     V64    10.0   .     S
V63     V65    10.0   .     S
V63     V66    10.0   .     S
V64     Er71    10.0   .     S
V64     V66    10.0   .     S
V64     V65    10.0   .     S
V65     Er165    10.0   .     S
V65     V66    10.0   .     S
V66     Er146    10.0   .     S
V67     Er148    10.0   .     S
V67     V68    10.0   .     S
V67     V70    10.0   .     S
V67     V69    10.0   .     S
V68     V70    10.0   .     S
V68     V69    10.0   .     S
V69     Er116    10.0   .     S
V69     V70    10.0   .     S
V70     Er73    10.0   .     S
Er71     Er72    9.999   .     S
Er71     Er73    10.0   .     S
Er71     Er76    9.999   .     S
Er71     Er75    10.0   .     S
Er72     Er76    9.999   .     S
Er72     Er74    10.0   .     S
Er72     Er73    10.0   .     S
Er73     Er74    9.999   .     S
Er73     Er75    9.999   .     S
Er74     Er75    9.999   .     S
Er74     Er76    10.0   .     S
Er75     Er76    10.0   .     S
Er76     V80    10.0   .     S
V77     Er99    10.0   .     S
V77     V78    10.0   1_556     S
V77     V80    10.0   1_556     S
V77     V79    10.0   .     S
V78     Er136    10.0   .     S
V78     V77    10.0   1_554     S
V78     V80    10.0   .     S
V78     V79    10.0   1_554     S
V79     Er119    10.0   .     S
V79     V80    10.0   1_556     S
V79     V78    10.0   1_556     S
V80     V79    10.0   1_554     S
V80     V77    10.0   1_554     S
V81     Er100    10.0   .     S
V81     V82    10.0   .     S
V81     V84    10.0   .     S
V81     V83    10.0   .     S
V82     Er154    10.0   .     S
V82     V84    10.0   .     S
V82     V83    10.0   .     S
V83     Er118    10.0   .     S
V83     V84    10.0   .     S
V84     Er86    10.0   .     S
Er85     Er87    9.999   .     S
Er85     Er86    10.0   .     S
Er85     Er90    9.999   .     S
Er85     Er89    10.0   .     S
Er86     Er87    10.0   .     S
Er86     Er88    9.999   .     S
Er86     Er89    9.999   .     S
Er87     Er90    9.999   .     S
Er87     Er88    10.0   .     S
Er88     Er89    9.999   .     S
Er88     Er90    10.0   .     S
Er89     Er90    10.0   .     S
Er89     V179    10.0   .     S
Er90     V94    10.0   .     S
V91     Er176    10.0   .     S
V91     V92    10.0   1_655     S
V91     V94    10.0   1_655     S
V91     V93    10.0   .     S
V92     V91    10.0   1_455     S
V92     V94    10.0   .     S
V92     V93    10.0   1_455     S
V93     Er115    10.0   .     S
V93     V94    10.0   1_655     S
V93     V92    10.0   1_655     S
V94     V93    10.0   1_455     S
V94     V91    10.0   1_455     S
V95     Er150    10.0   .     S
V95     V96    10.0   .     S
V95     V98    10.0   .     S
V95     V97    10.0   .     S
V96     Er161    10.0   .     S
V96     V98    10.0   .     S
V96     V97    10.0   .     S
V97     Er125    10.0   .     S
V97     V98    10.0   .     S
V98     Er112    10.0   .     S
Er99     Er101    9.999   .     S
Er99     Er102    9.999   1_556     S
Er99     Er100    10.0   .     S
Er99     Er104    10.0   1_556     S
Er100     Er103    9.999   1_556     S
Er100     Er101    10.0   .     S
Er100     Er104    9.999   1_556     S
Er101     Er103    10.0   1_556     S
Er101     Er102    9.999   1_556     S
Er102     Er101    9.999   1_554     S
Er102     Er99    9.999   1_554     S
Er102     Er104    10.0   .     S
Er102     Er103    10.0   .     S
Er102     V106    10.0   .     S
Er103     Er100    9.999   1_554     S
Er103     Er101    10.0   1_554     S
Er103     Er104    9.999   .     S
Er103     V134    10.0   .     S
Er104     Er100    9.999   1_554     S
Er104     Er99    10.0   1_554     S
V105     Er155    10.0   .     S
V105     V106    10.0   .     S
V105     V107    10.0   .     S
V105     V108    10.0   .     S
V106     V107    10.0   .     S
V106     V108    10.0   .     S
V107     Er188    10.0   .     S
V107     V108    10.0   .     S
Er109     Er112    9.999   .     S
Er109     Er110    10.0   .     S
Er109     Er114    10.0   .     S
Er109     Er111    9.999   .     S
Er109     V131    10.0   .     S
Er110     Er114    9.999   .     S
Er110     Er113    9.999   .     S
Er110     Er111    10.0   .     S
Er110     V144    10.0   .     S
Er111     Er112    9.999   .     S
Er111     Er113    10.0   .     S
Er112     Er113    10.0   .     S
Er112     Er114    10.0   .     S
Er113     Er114    9.999   .     S
Er115     Er117    9.999   .     S
Er115     Er119    9.999   .     S
Er115     Er120    10.0   .     S
Er115     Er116    10.0   .     S
Er116     Er118    9.999   .     S
Er116     Er117    10.0   .     S
Er116     Er120    9.999   .     S
Er117     Er118    10.0   .     S
Er117     Er119    9.999   .     S
Er117     V129    10.0   .     S
Er118     Er120    9.999   .     S
Er118     Er119    10.0   .     S
Er119     Er120    10.0   .     S
Er121     Er122    9.999   .     S
Er121     Er123    10.0   .     S
Er121     Er126    9.999   .     S
Er121     Er125    10.0   .     S
Er122     Er126    9.999   .     S
Er122     Er124    10.0   .     S
Er122     Er123    10.0   .     S
Er122     V143    10.0   .     S
Er123     Er124    9.999   .     S
Er123     Er125    9.999   .     S
Er124     Er125    9.999   .     S
Er124     Er126    10.0   .     S
Er125     Er126    10.0   .     S
Er126     V130    10.0   .     S
V127     Er149    10.0   .     S
V127     V128    10.0   1_565     S
V127     V130    10.0   1_565     S
V127     V129    10.0   .     S
V128     Er152    10.0   .     S
V128     V127    10.0   1_545     S
V128     V130    10.0   .     S
V128     V129    10.0   1_545     S
V129     V130    10.0   1_565     S
V129     V128    10.0   1_565     S
V130     V129    10.0   1_545     S
V130     V127    10.0   1_545     S
V131     V132    10.0   1_556     S
V131     V133    10.0   .     S
V131     V134    10.0   1_556     S
V132     Er183    10.0   .     S
V132     V131    10.0   1_554     S
V132     V134    10.0   .     S
V132     V133    10.0   1_554     S
V133     Er139    10.0   .     S
V133     V134    10.0   1_556     S
V133     V132    10.0   1_556     S
V134     V133    10.0   1_554     S
V134     V131    10.0   1_554     S
Er135     Er136    9.999   1_556     S
Er135     Er138    10.0   .     S
Er135     Er140    9.999   1_656     S
Er135     Er139    10.0   1_655     S
Er135     V142    10.0   .     S
Er136     Er135    9.999   1_554     S
Er136     Er140    9.999   1_655     S
Er136     Er137    10.0   1_655     S
Er136     Er138    10.0   1_554     S
Er137     Er139    9.999   1_554     S
Er137     Er140    10.0   .     S
Er137     Er138    9.999   1_454     S
Er137     Er136    10.0   1_455     S
Er138     Er137    9.999   1_656     S
Er138     Er136    10.0   1_556     S
Er138     Er139    9.999   1_655     S
Er139     Er137    9.999   1_556     S
Er139     Er138    9.999   1_455     S
Er139     Er135    10.0   1_455     S
Er139     Er140    10.0   1_556     S
Er140     Er136    9.999   1_455     S
Er140     Er135    9.999   1_454     S
Er140     Er139    10.0   1_554     S
V141     V142    10.0   1_455     S
V141     V144    10.0   .     S
V141     V143    10.0   1_455     S
V142     V141    10.0   1_655     S
V142     V144    10.0   1_655     S
V142     V143    10.0   .     S
V143     V141    10.0   1_655     S
V143     V144    10.0   1_655     S
V144     V142    10.0   1_455     S
V144     V143    10.0   1_455     S
Er145     Er149    9.999   1_545     S
Er145     Er146    9.999   1_545     S
Er145     Er147    10.0   .     S
Er145     Er150    10.0   .     S
Er146     Er145    9.999   1_565     S
Er146     Er147    10.0   1_565     S
Er146     Er149    9.999   .     S
Er146     Er148    10.0   .     S
Er147     Er150    9.999   .     S
Er147     Er148    9.999   1_545     S
Er147     Er146    10.0   1_545     S
Er147     V159    10.0   .     S
Er148     Er147    9.999   1_565     S
Er148     Er149    10.0   .     S
Er148     Er150    9.999   1_565     S
Er149     Er145    9.999   1_565     S
Er149     Er150    10.0   1_565     S
Er150     Er148    9.999   1_545     S
Er150     Er149    10.0   1_545     S
Er151     Er152    9.999   1_565     S
Er151     Er155    9.999   1_566     S
Er151     Er156    10.0   1_556     S
Er151     Er154    10.0   .     S
Er152     Er151    9.999   1_545     S
Er152     Er155    9.999   1_556     S
Er152     Er153    10.0   1_556     S
Er152     Er154    10.0   1_545     S
Er153     Er156    9.999   1_545     S
Er153     Er155    10.0   .     S
Er153     Er154    9.999   1_544     S
Er153     Er152    10.0   1_554     S
Er154     Er153    9.999   1_566     S
Er154     Er152    10.0   1_565     S
Er154     Er156    9.999   1_556     S
Er155     Er152    9.999   1_554     S
Er155     Er151    9.999   1_544     S
Er155     Er156    10.0   1_545     S
Er156     Er153    9.999   1_565     S
Er156     Er151    10.0   1_554     S
Er156     Er154    9.999   1_554     S
Er156     Er155    10.0   1_565     S
Er156     V160    10.0   .     S
V157     Er167    10.0   .     S
V157     V158    10.0   1_565     S
V157     V160    10.0   .     S
V157     V159    10.0   1_565     S
V158     Er187    10.0   .     S
V158     V157    10.0   1_545     S
V158     V159    10.0   .     S
V158     V160    10.0   1_545     S
V159     V160    10.0   1_545     S
V159     V157    10.0   1_545     S
V160     V159    10.0   1_565     S
V160     V158    10.0   1_565     S
Er161     Er163    9.999   .     S
Er161     Er164    10.0   .     S
Er161     Er166    9.999   .     S
Er161     Er162    10.0   .     S
Er162     Er164    9.999   .     S
Er162     Er165    9.999   .     S
Er162     Er166    10.0   .     S
Er163     Er164    10.0   .     S
Er163     Er166    9.999   .     S
Er163     Er165    10.0   .     S
Er163     V181    10.0   .     S
Er164     Er165    9.999   .     S
Er165     Er166    10.0   .     S
Er167     Er171    9.999   .     S
Er167     Er168    9.999   .     S
Er167     Er169    10.0   .     S
Er167     Er170    10.0   .     S
Er168     Er169    10.0   .     S
Er168     Er171    9.999   .     S
Er168     Er172    10.0   .     S
Er169     Er170    9.999   .     S
Er169     Er172    9.999   .     S
Er170     Er171    10.0   .     S
Er170     Er172    9.999   .     S
Er171     Er172    10.0   .     S
Er171     V180    10.0   .     S
Er173     Er175    9.999   1_655     S
Er173     Er174    10.0   .     S
Er173     Er178    9.999   1_655     S
Er173     Er176    10.0   .     S
Er174     Er175    10.0   1_655     S
Er174     Er177    9.999   1_655     S
Er174     Er176    9.999   .     S
Er175     Er173    9.999   1_455     S
Er175     Er174    10.0   1_455     S
Er175     Er178    9.999   .     S
Er175     Er177    10.0   .     S
Er175     V191    10.0   .     S
Er176     Er177    9.999   1_655     S
Er176     Er178    10.0   1_655     S
Er177     Er174    9.999   1_455     S
Er177     Er178    10.0   .     S
Er177     Er176    9.999   1_455     S
Er178     Er173    9.999   1_455     S
Er178     Er176    10.0   1_455     S
Er178     V182    10.0   .     S
V179     V180    10.0   .     S
V179     V181    10.0   .     S
V179     V182    10.0   .     S
V180     V181    10.0   .     S
V180     V182    10.0   .     S
V181     V182    10.0   .     S
Er183     Er185    9.999   .     S
Er183     Er187    9.999   .     S
Er183     Er188    10.0   .     S
Er183     Er184    10.0   .     S
Er184     Er186    9.999   .     S
Er184     Er185    10.0   .     S
Er184     Er188    9.999   .     S
Er185     Er186    10.0   .     S
Er185     Er187    9.999   .     S
Er185     V190    10.0   .     S
Er186     Er188    9.999   .     S
Er186     Er187    10.0   .     S
Er187     Er188    10.0   .     S
V189     V190    10.0   1_655     S
V189     V192    10.0   .     S
V189     V191    10.0   1_655     S
V190     V189    10.0   1_455     S
V190     V191    10.0   .     S
V190     V192    10.0   1_455     S
V191     V192    10.0   1_455     S
V191     V189    10.0   1_455     S
V192     V191    10.0   1_655     S
V192     V190    10.0   1_655     S
