data_gise
_audit_creation_date              2020-02-04
_audit_creation_method            'Pymatgen'
_symmetry_space_group_name_H-M    'P1'
_symmetry_Int_Tables_number       1
loop_
_symmetry_equiv_pos_as_xyz
  x,y,z
_cell_length_a                    38.4002
_cell_length_b                    38.4002
_cell_length_c                    37.1062
_cell_angle_alpha                 90.0
_cell_angle_beta                 90.0
_cell_angle_gamma                 90.0
loop_
_atom_site_label
_atom_site_type_symbol
_atom_site_fract_x
_atom_site_fract_y
_atom_site_fract_z
V1     V     0.1812   0.5   0.0
V2     V     0.25   0.4312   0.75
V3     V     0.25   0.5688   0.25
V4     V     0.3188   0.5   0.5
V5     V     0.6812   0.5   0.5
V6     V     0.75   0.5688   0.25
V7     V     0.8188   0.5   0.0
V8     V     0.75   0.4312   0.75
Er9     Er     0.5   0.4208   0.6753
Er10     Er     0.0   0.4208   0.8247
Er11     Er     0.0   0.5792   0.1753
Er12     Er     0.5   0.5792   0.3247
V13     V     0.6812   0.0   0.5
V14     V     0.75   0.9312   0.25
V15     V     0.8188   0.0   0.0
V16     V     0.75   0.0688   0.75
Er17     Er     0.5   0.9208   0.3247
Er18     Er     0.0   0.0792   0.8247
Er19     Er     0.5   0.0792   0.6753
Er20     Er     0.0   0.9208   0.1753
V21     V     0.3188   0.0   0.5
V22     V     0.1812   0.0   0.0
V23     V     0.25   0.0688   0.75
V24     V     0.25   0.9312   0.25
Er25     Er     0.1708   0.25   0.9253
Er26     Er     0.8292   0.25   0.9253
Er27     Er     0.6708   0.25   0.5747
Er28     Er     0.3292   0.25   0.5747
Er29     Er     0.8292   0.75   0.0747
Er30     Er     0.1708   0.75   0.0747
Er31     Er     0.3292   0.75   0.4253
Er32     Er     0.6708   0.75   0.4253
loop_
_geom_bond_atom_site_label_1
_geom_bond_atom_site_label_2
_geom_bond_distance
_geom_bond_site_symmetry_2
_ccdc_geom_bond_type
V1     Er30    10.0   .     S
V1     Er11    10.0   .     S
V1     Er25    10.0   1_554     S
V1     Er10    10.0   1_554     S
V1     V3    10.0   .     S
V1     V2    10.0   1_554     S
V2     Er10    10.0   .     S
V2     Er25    10.0   .     S
V2     Er9    10.0   .     S
V2     Er28    10.0   .     S
V2     V4    10.0   .     S
V2     V1    10.0   1_556     S
V3     Er11    10.0   .     S
V3     Er30    10.0   .     S
V3     Er12    10.0   .     S
V3     Er31    10.0   .     S
V3     V4    10.0   .     S
V4     Er28    10.0   .     S
V4     Er9    10.0   .     S
V4     Er31    10.0   .     S
V4     Er12    10.0   .     S
V5     Er32    10.0   .     S
V5     Er12    10.0   .     S
V5     Er27    10.0   .     S
V5     Er9    10.0   .     S
V5     V6    10.0   .     S
V5     V8    10.0   .     S
V6     Er11    10.0   1_655     S
V6     Er29    10.0   .     S
V6     Er12    10.0   .     S
V6     Er32    10.0   .     S
V6     V7    10.0   .     S
V7     Er29    10.0   .     S
V7     Er11    10.0   1_655     S
V7     Er26    10.0   1_554     S
V7     Er10    10.0   1_654     S
V7     V8    10.0   1_554     S
V8     Er9    10.0   .     S
V8     Er27    10.0   .     S
V8     Er10    10.0   1_655     S
V8     Er26    10.0   .     S
V8     V7    10.0   1_556     S
Er9     Er28    10.0   .     S
Er9     Er27    10.0   .     S
Er10     V1    10.0   1_556     S
Er10     Er25    10.0   .     S
Er10     V8    10.0   1_455     S
Er10     V7    10.0   1_456     S
Er10     Er26    10.0   1_455     S
Er11     Er30    10.0   .     S
Er11     V7    10.0   1_455     S
Er11     V6    10.0   1_455     S
Er11     Er29    10.0   1_455     S
Er12     Er31    10.0   .     S
Er12     Er32    10.0   .     S
V13     Er32    10.0   1_545     S
V13     Er17    10.0   1_545     S
V13     Er27    10.0   .     S
V13     Er19    10.0   .     S
V13     V16    10.0   .     S
V13     V14    10.0   1_545     S
V14     Er17    10.0   .     S
V14     Er32    10.0   .     S
V14     Er20    10.0   1_655     S
V14     Er29    10.0   .     S
V14     V15    10.0   1_565     S
V14     V13    10.0   1_565     S
V15     Er29    10.0   1_545     S
V15     Er20    10.0   1_645     S
V15     Er26    10.0   1_554     S
V15     Er18    10.0   1_654     S
V15     V14    10.0   1_545     S
V15     V16    10.0   1_554     S
V16     Er18    10.0   1_655     S
V16     Er26    10.0   .     S
V16     Er19    10.0   .     S
V16     Er27    10.0   .     S
V16     V15    10.0   1_556     S
Er17     V13    10.0   1_565     S
Er17     Er32    10.0   .     S
Er17     V21    10.0   1_565     S
Er17     V24    10.0   .     S
Er17     Er31    10.0   .     S
Er18     V15    10.0   1_456     S
Er18     V16    10.0   1_455     S
Er18     Er26    10.0   1_455     S
Er18     V22    10.0   1_556     S
Er18     V23    10.0   .     S
Er18     Er25    10.0   .     S
Er19     Er27    10.0   .     S
Er19     V21    10.0   .     S
Er19     V23    10.0   .     S
Er19     Er28    10.0   .     S
Er20     V14    10.0   1_455     S
Er20     Er29    10.0   1_455     S
Er20     V15    10.0   1_465     S
Er20     V22    10.0   1_565     S
Er20     V24    10.0   .     S
Er20     Er30    10.0   .     S
V21     Er31    10.0   1_545     S
V21     Er17    10.0   1_545     S
V21     Er28    10.0   .     S
V21     V24    10.0   1_545     S
V21     V23    10.0   .     S
V22     Er30    10.0   1_545     S
V22     Er20    10.0   1_545     S
V22     Er25    10.0   1_554     S
V22     Er18    10.0   1_554     S
V22     V24    10.0   1_545     S
V22     V23    10.0   1_554     S
V23     Er28    10.0   .     S
V23     Er25    10.0   .     S
V23     V22    10.0   1_556     S
V24     Er31    10.0   .     S
V24     Er30    10.0   .     S
V24     V22    10.0   1_565     S
V24     V21    10.0   1_565     S
Er25     V1    10.0   1_556     S
Er25     V22    10.0   1_556     S
Er26     V7    10.0   1_556     S
Er26     Er10    10.0   1_655     S
Er26     V15    10.0   1_556     S
Er26     Er18    10.0   1_655     S
Er29     Er11    10.0   1_655     S
Er29     Er20    10.0   1_655     S
Er29     V15    10.0   1_565     S
Er30     V22    10.0   1_565     S
Er31     V21    10.0   1_565     S
Er32     V13    10.0   1_565     S
