data_gme
_audit_creation_date              2020-02-04
_audit_creation_method            'Pymatgen'
_symmetry_space_group_name_H-M    'P1'
_symmetry_Int_Tables_number       1
loop_
_symmetry_equiv_pos_as_xyz
  x,y,z
_cell_length_a                    43.628
_cell_length_b                    43.628
_cell_length_c                    32.3437
_cell_angle_alpha                 90.0
_cell_angle_beta                 90.0
_cell_angle_gamma                 120.0
loop_
_atom_site_label
_atom_site_type_symbol
_atom_site_fract_x
_atom_site_fract_y
_atom_site_fract_z
V1     V     0.4375   0.1041   0.4046
V2     V     0.6667   0.1041   0.4046
V3     V     0.3333   0.8959   0.5954
V4     V     0.5625   0.8959   0.5954
V5     V     0.4375   0.1041   0.0954
V6     V     0.6667   0.1041   0.0954
V7     V     0.3333   0.8959   0.9046
V8     V     0.5625   0.8959   0.9046
V9     V     0.3333   0.4375   0.9046
V10     V     0.5625   0.6667   0.9046
V11     V     0.6667   0.5625   0.0954
V12     V     0.4375   0.3333   0.0954
V13     V     0.3333   0.4375   0.5954
V14     V     0.5625   0.6667   0.5954
V15     V     0.6667   0.5625   0.4046
V16     V     0.4375   0.3333   0.4046
V17     V     0.1041   0.4375   0.5954
V18     V     0.1041   0.6667   0.5954
V19     V     0.8959   0.3333   0.4046
V20     V     0.8959   0.5625   0.4046
V21     V     0.1041   0.4375   0.9046
V22     V     0.1041   0.6667   0.9046
V23     V     0.8959   0.3333   0.0954
V24     V     0.8959   0.5625   0.0954
loop_
_geom_bond_atom_site_label_1
_geom_bond_atom_site_label_2
_geom_bond_distance
_geom_bond_site_symmetry_2
_ccdc_geom_bond_type
V1     V2    10.0   .     S
V1     V3    10.0   1_545     S
V1     V5    10.0   .     S
V1     V16    10.0   .     S
V2     V4    10.0   1_545     S
V2     V6    10.0   .     S
V2     V19    10.0   .     S
V3     V4    10.0   .     S
V3     V1    10.0   1_565     S
V3     V7    10.0   .     S
V3     V18    10.0   .     S
V4     V2    10.0   1_565     S
V4     V8    10.0   .     S
V4     V14    10.0   .     S
V5     V6    10.0   .     S
V5     V7    10.0   1_544     S
V5     V12    10.0   .     S
V6     V8    10.0   1_544     S
V6     V23    10.0   .     S
V7     V8    10.0   .     S
V7     V5    10.0   1_566     S
V7     V22    10.0   .     S
V8     V6    10.0   1_566     S
V8     V10    10.0   .     S
V9     V10    10.0   .     S
V9     V12    10.0   1_556     S
V9     V13    10.0   .     S
V9     V21    10.0   .     S
V10     V11    10.0   1_556     S
V10     V14    10.0   .     S
V11     V12    10.0   .     S
V11     V10    10.0   1_554     S
V11     V15    10.0   .     S
V11     V24    10.0   .     S
V12     V9    10.0   1_554     S
V12     V16    10.0   .     S
V13     V14    10.0   .     S
V13     V16    10.0   .     S
V13     V17    10.0   .     S
V14     V15    10.0   .     S
V15     V16    10.0   .     S
V15     V20    10.0   .     S
V17     V18    10.0   .     S
V17     V19    10.0   1_455     S
V17     V21    10.0   .     S
V18     V20    10.0   1_455     S
V18     V22    10.0   .     S
V19     V20    10.0   .     S
V19     V17    10.0   1_655     S
V19     V23    10.0   .     S
V20     V18    10.0   1_655     S
V20     V24    10.0   .     S
V21     V22    10.0   .     S
V21     V23    10.0   1_456     S
V22     V24    10.0   1_456     S
V23     V24    10.0   .     S
V23     V21    10.0   1_654     S
V24     V22    10.0   1_654     S
