data_gng
_audit_creation_date              2020-02-04
_audit_creation_method            'Pymatgen'
_symmetry_space_group_name_H-M    'P1'
_symmetry_Int_Tables_number       1
loop_
_symmetry_equiv_pos_as_xyz
  x,y,z
_cell_length_a                    136.9113
_cell_length_b                    136.9113
_cell_length_c                    136.9113
_cell_angle_alpha                 90.0
_cell_angle_beta                 90.0
_cell_angle_gamma                 90.0
loop_
_atom_site_label
_atom_site_type_symbol
_atom_site_fract_x
_atom_site_fract_y
_atom_site_fract_z
He1     He     0.9469   0.9469   0.5385
He2     He     0.5385   0.9469   0.9469
He3     He     0.9469   0.5385   0.9469
He4     He     0.7115   0.3031   0.9469
He5     He     0.2885   0.5531   0.1969
He6     He     0.2885   0.6969   0.0531
He7     He     0.0531   0.2885   0.6969
He8     He     0.7885   0.5531   0.6969
He9     He     0.7885   0.6969   0.5531
He10     He     0.5531   0.6969   0.7885
He11     He     0.6969   0.7885   0.5531
He12     He     0.5531   0.7885   0.6969
He13     He     0.8031   0.8031   0.5385
He14     He     0.5385   0.8031   0.8031
He15     He     0.3031   0.9469   0.7115
He16     He     0.8031   0.5385   0.8031
He17     He     0.9469   0.2115   0.8031
He18     He     0.2115   0.8031   0.9469
He19     He     0.5531   0.4615   0.5531
He20     He     0.4615   0.6969   0.6969
He21     He     0.4615   0.5531   0.5531
He22     He     0.8031   0.0385   0.3031
He23     He     0.3031   0.8031   0.0385
He24     He     0.5531   0.5531   0.4615
He25     He     0.8031   0.9469   0.2115
He26     He     0.6969   0.5531   0.7885
He27     He     0.7885   0.0531   0.1969
He28     He     0.7115   0.9469   0.3031
He29     He     0.2115   0.9469   0.8031
He30     He     0.8031   0.2115   0.9469
He31     He     0.9469   0.8031   0.2115
He32     He     0.9615   0.0531   0.5531
He33     He     0.5531   0.9615   0.0531
He34     He     0.6969   0.4615   0.6969
He35     He     0.9615   0.5531   0.0531
He36     He     0.7885   0.1969   0.0531
He37     He     0.5531   0.0531   0.9615
He38     He     0.0531   0.7885   0.1969
He39     He     0.0531   0.5531   0.9615
He40     He     0.0531   0.9615   0.5531
He41     He     0.6969   0.6969   0.4615
He42     He     0.1969   0.7885   0.0531
He43     He     0.0531   0.4615   0.0531
He44     He     0.4615   0.0531   0.0531
He45     He     0.0531   0.1969   0.7885
He46     He     0.0531   0.0531   0.4615
He47     He     0.2115   0.3031   0.4469
He48     He     0.6969   0.9615   0.1969
He49     He     0.9615   0.6969   0.1969
He50     He     0.6969   0.2885   0.0531
He51     He     0.9615   0.1969   0.6969
He52     He     0.2885   0.0531   0.6969
He53     He     0.4469   0.7115   0.8031
He54     He     0.7115   0.8031   0.4469
He55     He     0.1969   0.6969   0.9615
He56     He     0.0531   0.6969   0.2885
He57     He     0.1969   0.9615   0.6969
He58     He     0.6969   0.0531   0.2885
He59     He     0.6969   0.1969   0.9615
He60     He     0.4615   0.1969   0.1969
He61     He     0.1969   0.0531   0.7885
He62     He     0.5531   0.2885   0.1969
He63     He     0.5531   0.1969   0.2885
He64     He     0.1969   0.5531   0.2885
He65     He     0.1969   0.2885   0.5531
He66     He     0.2885   0.1969   0.5531
He67     He     0.3031   0.7115   0.9469
He68     He     0.9469   0.3031   0.7115
He69     He     0.9469   0.7115   0.3031
He70     He     0.4469   0.0385   0.9469
He71     He     0.4469   0.4469   0.5385
He72     He     0.0385   0.9469   0.4469
He73     He     0.0385   0.4469   0.9469
He74     He     0.4469   0.5385   0.4469
He75     He     0.4469   0.9469   0.0385
He76     He     0.9469   0.4469   0.0385
He77     He     0.9469   0.0385   0.4469
He78     He     0.5385   0.4469   0.4469
He79     He     0.3031   0.5385   0.3031
He80     He     0.8031   0.4469   0.7115
He81     He     0.8031   0.3031   0.0385
He82     He     0.4469   0.8031   0.7115
He83     He     0.3031   0.0385   0.8031
He84     He     0.1969   0.1969   0.4615
He85     He     0.3031   0.3031   0.5385
He86     He     0.7115   0.4469   0.8031
He87     He     0.1969   0.4615   0.1969
He88     He     0.8031   0.7115   0.4469
He89     He     0.0385   0.8031   0.3031
He90     He     0.0385   0.3031   0.8031
He91     He     0.2115   0.4469   0.3031
He92     He     0.4469   0.2115   0.3031
He93     He     0.4469   0.3031   0.2115
He94     He     0.3031   0.4469   0.2115
He95     He     0.5385   0.3031   0.3031
He96     He     0.3031   0.2115   0.4469
Ti97     Ti     0.5124   0.5124   0.8405
Ti98     Ti     0.5124   0.8405   0.5124
Ti99     Ti     0.8405   0.5124   0.5124
Ti100     Ti     0.2376   0.5124   0.9095
Ti101     Ti     0.2376   0.8405   0.2376
Ti102     Ti     0.9095   0.2376   0.5124
Ti103     Ti     0.5124   0.2376   0.9095
Ti104     Ti     0.2376   0.9095   0.5124
Ti105     Ti     0.5905   0.4876   0.2624
Ti106     Ti     0.5124   0.9095   0.2376
Ti107     Ti     0.8405   0.2376   0.2376
Ti108     Ti     0.2376   0.2376   0.8405
Ti109     Ti     0.7376   0.7376   0.8405
Ti110     Ti     0.8405   0.7376   0.7376
Ti111     Ti     0.7376   0.8405   0.7376
Ti112     Ti     0.6595   0.7624   0.2624
Ti113     Ti     0.2624   0.5905   0.4876
Ti114     Ti     0.9095   0.5124   0.2376
Ti115     Ti     0.7624   0.6595   0.2624
Ti116     Ti     0.0905   0.4876   0.7624
Ti117     Ti     0.0905   0.7624   0.4876
Ti118     Ti     0.2376   0.3405   0.7376
Ti119     Ti     0.5124   0.7376   0.4095
Ti120     Ti     0.7624   0.0905   0.4876
Ti121     Ti     0.7376   0.4095   0.5124
Ti122     Ti     0.3405   0.7376   0.2376
Ti123     Ti     0.4876   0.0905   0.7624
Ti124     Ti     0.7624   0.4876   0.0905
Ti125     Ti     0.7376   0.5124   0.4095
Ti126     Ti     0.7624   0.7624   0.1595
Ti127     Ti     0.7376   0.3405   0.2376
Ti128     Ti     0.5124   0.4095   0.7376
Ti129     Ti     0.2624   0.7624   0.6595
Ti130     Ti     0.2376   0.7376   0.3405
Ti131     Ti     0.3405   0.2376   0.7376
Ti132     Ti     0.2624   0.6595   0.7624
Ti133     Ti     0.7624   0.2624   0.6595
Ti134     Ti     0.1595   0.7624   0.7624
Ti135     Ti     0.1595   0.4876   0.4876
Ti136     Ti     0.7376   0.2376   0.3405
Ti137     Ti     0.4876   0.2624   0.5905
Ti138     Ti     0.7624   0.1595   0.7624
Ti139     Ti     0.6595   0.2624   0.7624
Ti140     Ti     0.4095   0.5124   0.7376
Ti141     Ti     0.5905   0.2624   0.4876
Ti142     Ti     0.2624   0.1595   0.2624
Ti143     Ti     0.6595   0.4876   0.9876
Ti144     Ti     0.7624   0.9876   0.5905
Ti145     Ti     0.5905   0.7624   0.9876
Ti146     Ti     0.5124   0.3405   0.0124
Ti147     Ti     0.3405   0.0124   0.5124
Ti148     Ti     0.3405   0.5124   0.0124
Ti149     Ti     0.5124   0.0124   0.3405
Ti150     Ti     0.0124   0.5124   0.3405
Ti151     Ti     0.7624   0.5905   0.9876
Ti152     Ti     0.4876   0.6595   0.9876
Ti153     Ti     0.0905   0.9876   0.2624
Ti154     Ti     0.6595   0.9876   0.4876
Ti155     Ti     0.4095   0.2376   0.0124
Ti156     Ti     0.9876   0.7624   0.5905
Ti157     Ti     0.9876   0.4876   0.6595
Ti158     Ti     0.5905   0.9876   0.7624
V159     V     0.2025   0.0992   0.1508
V160     V     0.7975   0.8492   0.9008
V161     V     0.4008   0.4008   0.9525
V162     V     0.2975   0.9008   0.3492
V163     V     0.4008   0.9525   0.4008
V164     V     0.3492   0.3492   0.9525
V165     V     0.9525   0.4008   0.4008
V166     V     0.9525   0.3492   0.3492
V167     V     0.8492   0.9008   0.7975
V168     V     0.2025   0.1508   0.0992
V169     V     0.9008   0.7975   0.8492
V170     V     0.5992   0.1508   0.7025
V171     V     0.4008   0.7975   0.3492
V172     V     0.7025   0.6508   0.0992
V173     V     0.5992   0.7025   0.1508
V174     V     0.6508   0.0992   0.7025
V175     V     0.6508   0.1508   0.5475
V176     V     0.0992   0.7025   0.6508
V177     V     0.1508   0.7025   0.5992
V178     V     0.0475   0.1508   0.1508
V179     V     0.4008   0.8492   0.2975
V180     V     0.2975   0.4008   0.8492
V181     V     0.2975   0.3492   0.9008
V182     V     0.9008   0.9008   0.9525
V183     V     0.3492   0.9525   0.3492
V184     V     0.3492   0.7975   0.4008
V185     V     0.3492   0.9008   0.2975
V186     V     0.9525   0.9008   0.9008
V187     V     0.9008   0.9525   0.9008
V188     V     0.8492   0.2975   0.4008
V189     V     0.9008   0.2975   0.3492
V190     V     0.2975   0.8492   0.4008
V191     V     0.9008   0.3492   0.2975
V192     V     0.1508   0.1508   0.0475
V193     V     0.1508   0.0992   0.2025
V194     V     0.8492   0.4525   0.3492
V195     V     0.4525   0.3492   0.8492
V196     V     0.4525   0.4008   0.9008
V197     V     0.4008   0.4525   0.9008
V198     V     0.3492   0.8492   0.4525
V199     V     0.4008   0.9008   0.4525
V200     V     0.4525   0.9008   0.4008
V201     V     0.9008   0.4525   0.4008
V202     V     0.9008   0.4008   0.4525
V203     V     0.8492   0.8492   0.9525
V204     V     0.9525   0.8492   0.8492
V205     V     0.8492   0.9525   0.8492
H206     H     0.9458   0.1235   0.5741
H207     H     0.9458   0.0741   0.6235
H208     H     0.1235   0.9458   0.5741
H209     H     0.0741   0.9458   0.6235
Be210     Be     0.0102   0.9606   0.65
Be211     Be     0.9606   0.0102   0.65
Be212     Be     0.0102   0.15   0.4606
Be213     Be     0.9606   0.15   0.5102
H214     H     0.1235   0.0741   0.4458
H215     H     0.0741   0.1235   0.4458
Be216     Be     0.15   0.0102   0.4606
Be217     Be     0.15   0.9606   0.5102
H218     H     0.5741   0.9458   0.1235
H219     H     0.6235   0.9458   0.0741
H220     H     0.5741   0.1235   0.9458
H221     H     0.6235   0.0741   0.9458
Be222     Be     0.65   0.0102   0.9606
Be223     Be     0.65   0.9606   0.0102
Be224     Be     0.4606   0.15   0.0102
Be225     Be     0.5102   0.15   0.9606
H226     H     0.4458   0.1235   0.0741
H227     H     0.4458   0.0741   0.1235
Be228     Be     0.4606   0.0102   0.15
Be229     Be     0.5102   0.9606   0.15
Be230     Be     0.7602   0.7106   0.35
Be231     Be     0.7106   0.7602   0.35
H232     H     0.8241   0.6958   0.3765
H233     H     0.8735   0.6958   0.4259
Be234     Be     0.9   0.7602   0.5394
Be235     Be     0.9   0.7106   0.4898
H236     H     0.8241   0.8735   0.5542
H237     H     0.8735   0.8241   0.5542
H238     H     0.6958   0.8241   0.3765
H239     H     0.6958   0.8735   0.4259
Be240     Be     0.7106   0.9   0.4898
Be241     Be     0.7602   0.9   0.5394
Be242     Be     0.35   0.7106   0.7602
Be243     Be     0.35   0.7602   0.7106
H244     H     0.3765   0.6958   0.8241
H245     H     0.4259   0.6958   0.8735
Be246     Be     0.4898   0.7106   0.9
Be247     Be     0.5394   0.7602   0.9
H248     H     0.5542   0.8241   0.8735
H249     H     0.5542   0.8735   0.8241
H250     H     0.3765   0.8241   0.6958
H251     H     0.4259   0.8735   0.6958
Be252     Be     0.5394   0.9   0.7602
Be253     Be     0.4898   0.9   0.7106
Be254     Be     0.7106   0.35   0.7602
Be255     Be     0.7602   0.35   0.7106
H256     H     0.6958   0.3765   0.8241
H257     H     0.6958   0.4259   0.8735
Be258     Be     0.7602   0.5394   0.9
Be259     Be     0.7106   0.4898   0.9
H260     H     0.8241   0.5542   0.8735
H261     H     0.8735   0.5542   0.8241
H262     H     0.8241   0.3765   0.6958
H263     H     0.8735   0.4259   0.6958
Be264     Be     0.9   0.5394   0.7602
Be265     Be     0.9   0.4898   0.7106
Be266     Be     0.9898   0.35   0.0394
Be267     Be     0.0394   0.35   0.9898
H268     H     0.0542   0.3765   0.9259
H269     H     0.0542   0.4259   0.8765
Be270     Be     0.9898   0.5394   0.85
Be271     Be     0.0394   0.4898   0.85
H272     H     0.8765   0.5542   0.9259
H273     H     0.9259   0.5542   0.8765
H274     H     0.9259   0.3765   0.0542
H275     H     0.8765   0.4259   0.0542
Be276     Be     0.85   0.5394   0.9898
Be277     Be     0.85   0.4898   0.0394
Be278     Be     0.35   0.5394   0.4898
Be279     Be     0.35   0.4898   0.5394
H280     H     0.4259   0.3765   0.5542
H281     H     0.3765   0.4259   0.5542
Be282     Be     0.5394   0.35   0.4898
Be283     Be     0.4898   0.35   0.5394
H284     H     0.4259   0.5542   0.3765
H285     H     0.3765   0.5542   0.4259
H286     H     0.5542   0.4259   0.3765
H287     H     0.5542   0.3765   0.4259
Be288     Be     0.5394   0.4898   0.35
Be289     Be     0.4898   0.5394   0.35
H290     H     0.5542   0.3241   0.3735
H291     H     0.5542   0.3735   0.3241
Be292     Be     0.5394   0.4   0.2602
Be293     Be     0.4898   0.4   0.2106
H294     H     0.4259   0.1958   0.3735
H295     H     0.3765   0.1958   0.3241
Be296     Be     0.5394   0.2602   0.4
Be297     Be     0.4898   0.2106   0.4
H298     H     0.3765   0.3241   0.1958
H299     H     0.4259   0.3735   0.1958
Be300     Be     0.35   0.2106   0.2602
Be301     Be     0.35   0.2602   0.2106
Be302     Be     0.4606   0.5102   0.65
Be303     Be     0.5102   0.4606   0.65
H304     H     0.4458   0.6235   0.5741
H305     H     0.4458   0.5741   0.6235
Be306     Be     0.5102   0.65   0.4606
Be307     Be     0.4606   0.65   0.5102
H308     H     0.6235   0.5741   0.4458
H309     H     0.5741   0.6235   0.4458
H310     H     0.6235   0.4458   0.5741
H311     H     0.5741   0.4458   0.6235
Be312     Be     0.65   0.5102   0.4606
Be313     Be     0.65   0.4606   0.5102
Be314     Be     0.9898   0.7106   0.4
Be315     Be     0.0394   0.7602   0.4
H316     H     0.0542   0.8241   0.3735
H317     H     0.0542   0.8735   0.3241
Be318     Be     0.0394   0.9   0.2602
Be319     Be     0.9898   0.9   0.2106
H320     H     0.9259   0.6958   0.3735
H321     H     0.8765   0.6958   0.3241
H322     H     0.9259   0.8735   0.1958
H323     H     0.8765   0.8241   0.1958
Be324     Be     0.85   0.7106   0.2602
Be325     Be     0.85   0.7602   0.2106
Be326     Be     0.7894   0.5102   0.6
Be327     Be     0.7398   0.4606   0.6
H328     H     0.8042   0.6235   0.6759
H329     H     0.8042   0.5741   0.6265
Be330     Be     0.7398   0.65   0.7894
Be331     Be     0.7894   0.65   0.7398
H332     H     0.6265   0.5741   0.8042
H333     H     0.6759   0.6235   0.8042
H334     H     0.6759   0.4458   0.6265
H335     H     0.6265   0.4458   0.6759
Be336     Be     0.6   0.4606   0.7398
Be337     Be     0.6   0.5102   0.7894
H338     H     0.9458   0.6759   0.1265
H339     H     0.9458   0.6265   0.1759
H340     H     0.1235   0.6759   0.3042
H341     H     0.0741   0.6265   0.3042
Be342     Be     0.0102   0.6   0.2894
Be343     Be     0.9606   0.6   0.2398
Be344     Be     0.0102   0.7894   0.1
Be345     Be     0.9606   0.7398   0.1
H346     H     0.1235   0.8042   0.1759
H347     H     0.0741   0.8042   0.1265
Be348     Be     0.15   0.7398   0.2894
Be349     Be     0.15   0.7894   0.2398
Be350     Be     0.9898   0.0394   0.35
Be351     Be     0.0394   0.9898   0.35
H352     H     0.0542   0.9259   0.3765
H353     H     0.0542   0.8765   0.4259
Be354     Be     0.9898   0.85   0.5394
Be355     Be     0.0394   0.85   0.4898
H356     H     0.8765   0.9259   0.5542
H357     H     0.9259   0.8765   0.5542
H358     H     0.9259   0.0542   0.3765
H359     H     0.8765   0.0542   0.4259
Be360     Be     0.85   0.9898   0.5394
Be361     Be     0.85   0.0394   0.4898
Be362     Be     0.35   0.9898   0.0394
Be363     Be     0.35   0.0394   0.9898
H364     H     0.3765   0.0542   0.9259
H365     H     0.4259   0.0542   0.8765
Be366     Be     0.5394   0.9898   0.85
Be367     Be     0.4898   0.0394   0.85
H368     H     0.5542   0.8765   0.9259
H369     H     0.5542   0.9259   0.8765
H370     H     0.3765   0.9259   0.0542
H371     H     0.4259   0.8765   0.0542
Be372     Be     0.4898   0.85   0.0394
Be373     Be     0.5394   0.85   0.9898
H374     H     0.9458   0.5741   0.1235
H375     H     0.9458   0.6235   0.0741
H376     H     0.1235   0.5741   0.9458
H377     H     0.0741   0.6235   0.9458
Be378     Be     0.9606   0.65   0.0102
Be379     Be     0.0102   0.65   0.9606
Be380     Be     0.15   0.4606   0.0102
Be381     Be     0.15   0.5102   0.9606
H382     H     0.1235   0.4458   0.0741
H383     H     0.0741   0.4458   0.1235
Be384     Be     0.0102   0.4606   0.15
Be385     Be     0.9606   0.5102   0.15
Be386     Be     0.9898   0.4   0.7106
Be387     Be     0.0394   0.4   0.7602
H388     H     0.9259   0.3735   0.6958
H389     H     0.8765   0.3241   0.6958
Be390     Be     0.85   0.2602   0.7106
Be391     Be     0.85   0.2106   0.7602
H392     H     0.0542   0.3735   0.8241
H393     H     0.0542   0.3241   0.8735
H394     H     0.9259   0.1958   0.8735
H395     H     0.8765   0.1958   0.8241
Be396     Be     0.9898   0.2106   0.9
Be397     Be     0.0394   0.2602   0.9
H398     H     0.9458   0.1265   0.6759
H399     H     0.9458   0.1759   0.6265
H400     H     0.1235   0.3042   0.6759
H401     H     0.0741   0.3042   0.6265
Be402     Be     0.0102   0.2894   0.6
Be403     Be     0.9606   0.2398   0.6
Be404     Be     0.15   0.2894   0.7398
Be405     Be     0.15   0.2398   0.7894
H406     H     0.1235   0.1759   0.8042
H407     H     0.0741   0.1265   0.8042
Be408     Be     0.0102   0.1   0.7894
Be409     Be     0.9606   0.1   0.7398
Be410     Be     0.7106   0.9898   0.4
Be411     Be     0.7602   0.0394   0.4
H412     H     0.6958   0.9259   0.3735
H413     H     0.6958   0.8765   0.3241
Be414     Be     0.7106   0.85   0.2602
Be415     Be     0.7602   0.85   0.2106
H416     H     0.8241   0.0542   0.3735
H417     H     0.8735   0.0542   0.3241
H418     H     0.8735   0.9259   0.1958
H419     H     0.8241   0.8765   0.1958
Be420     Be     0.9   0.9898   0.2106
Be421     Be     0.9   0.0394   0.2602
Be422     Be     0.7106   0.4   0.9898
Be423     Be     0.7602   0.4   0.0394
H424     H     0.8241   0.3735   0.0542
H425     H     0.8735   0.3241   0.0542
Be426     Be     0.9   0.2602   0.0394
Be427     Be     0.9   0.2106   0.9898
H428     H     0.6958   0.3735   0.9259
H429     H     0.6958   0.3241   0.8765
H430     H     0.8735   0.1958   0.9259
H431     H     0.8241   0.1958   0.8765
Be432     Be     0.7106   0.2602   0.85
Be433     Be     0.7602   0.2106   0.85
Be434     Be     0.5102   0.7894   0.6
Be435     Be     0.4606   0.7398   0.6
H436     H     0.6235   0.8042   0.6759
H437     H     0.5741   0.8042   0.6265
Be438     Be     0.65   0.7398   0.7894
Be439     Be     0.65   0.7894   0.7398
H440     H     0.5741   0.6265   0.8042
H441     H     0.6235   0.6759   0.8042
H442     H     0.4458   0.6265   0.6759
H443     H     0.4458   0.6759   0.6265
Be444     Be     0.4606   0.6   0.7398
Be445     Be     0.5102   0.6   0.7894
H446     H     0.3241   0.3765   0.1958
H447     H     0.3735   0.4259   0.1958
Be448     Be     0.4   0.4898   0.2106
Be449     Be     0.4   0.5394   0.2602
H450     H     0.3735   0.5542   0.3241
H451     H     0.3241   0.5542   0.3735
Be452     Be     0.2602   0.5394   0.4
Be453     Be     0.2106   0.4898   0.4
H454     H     0.1958   0.3765   0.3241
H455     H     0.1958   0.4259   0.3735
Be456     Be     0.2106   0.35   0.2602
Be457     Be     0.2602   0.35   0.2106
H458     H     0.3241   0.3735   0.5542
H459     H     0.3735   0.3241   0.5542
Be460     Be     0.4   0.2602   0.5394
Be461     Be     0.4   0.2106   0.4898
H462     H     0.3735   0.1958   0.4259
H463     H     0.3241   0.1958   0.3765
Be464     Be     0.2106   0.2602   0.35
Be465     Be     0.2602   0.2106   0.35
H466     H     0.1958   0.3735   0.4259
H467     H     0.1958   0.3241   0.3765
Be468     Be     0.2602   0.4   0.5394
Be469     Be     0.2106   0.4   0.4898
Be470     Be     0.4   0.7602   0.0394
Be471     Be     0.4   0.7106   0.9898
H472     H     0.3735   0.6958   0.9259
H473     H     0.3241   0.6958   0.8765
Be474     Be     0.2602   0.7106   0.85
Be475     Be     0.2106   0.7602   0.85
H476     H     0.3735   0.8241   0.0542
H477     H     0.3241   0.8735   0.0542
H478     H     0.1958   0.8735   0.9259
H479     H     0.1958   0.8241   0.8765
Be480     Be     0.2602   0.9   0.0394
Be481     Be     0.2106   0.9   0.9898
H482     H     0.5741   0.3042   0.1265
H483     H     0.6235   0.3042   0.1759
H484     H     0.5741   0.1265   0.3042
H485     H     0.6235   0.1759   0.3042
Be486     Be     0.65   0.2398   0.2894
Be487     Be     0.65   0.2894   0.2398
Be488     Be     0.5102   0.2894   0.1
Be489     Be     0.4606   0.2398   0.1
H490     H     0.4458   0.1265   0.1759
H491     H     0.4458   0.1759   0.1265
Be492     Be     0.5102   0.1   0.2894
Be493     Be     0.4606   0.1   0.2398
H494     H     0.3735   0.0542   0.8241
H495     H     0.3241   0.0542   0.8735
Be496     Be     0.2602   0.0394   0.9
Be497     Be     0.2106   0.9898   0.9
Be498     Be     0.4   0.9898   0.7106
Be499     Be     0.4   0.0394   0.7602
H500     H     0.3735   0.9259   0.6958
H501     H     0.3241   0.8765   0.6958
H502     H     0.1958   0.9259   0.8735
H503     H     0.1958   0.8765   0.8241
Be504     Be     0.2602   0.85   0.7106
Be505     Be     0.2106   0.85   0.7602
Be506     Be     0.7894   0.7398   0.65
Be507     Be     0.7398   0.7894   0.65
H508     H     0.8042   0.6265   0.5741
H509     H     0.8042   0.6759   0.6235
H510     H     0.6265   0.6759   0.4458
H511     H     0.6759   0.6265   0.4458
Be512     Be     0.7894   0.6   0.5102
Be513     Be     0.7398   0.6   0.4606
H514     H     0.6265   0.8042   0.5741
H515     H     0.6759   0.8042   0.6235
Be516     Be     0.6   0.7894   0.5102
Be517     Be     0.6   0.7398   0.4606
H518     H     0.3042   0.6759   0.1235
H519     H     0.3042   0.6265   0.0741
H520     H     0.1265   0.6759   0.9458
H521     H     0.1759   0.6265   0.9458
Be522     Be     0.2894   0.6   0.0102
Be523     Be     0.2398   0.6   0.9606
Be524     Be     0.2894   0.7398   0.15
Be525     Be     0.2398   0.7894   0.15
H526     H     0.1759   0.8042   0.1235
H527     H     0.1265   0.8042   0.0741
Be528     Be     0.1   0.7894   0.0102
Be529     Be     0.1   0.7398   0.9606
H530     H     0.6759   0.1235   0.3042
H531     H     0.6265   0.0741   0.3042
H532     H     0.6759   0.9458   0.1265
H533     H     0.6265   0.9458   0.1759
Be534     Be     0.6   0.0102   0.2894
Be535     Be     0.6   0.9606   0.2398
Be536     Be     0.7398   0.15   0.2894
Be537     Be     0.7894   0.15   0.2398
H538     H     0.8042   0.1235   0.1759
H539     H     0.8042   0.0741   0.1265
Be540     Be     0.7894   0.0102   0.1
Be541     Be     0.7398   0.9606   0.1
Be542     Be     0.1   0.0102   0.7894
Be543     Be     0.1   0.9606   0.7398
H544     H     0.1265   0.0741   0.8042
H545     H     0.1759   0.1235   0.8042
Be546     Be     0.2894   0.15   0.7398
Be547     Be     0.2398   0.15   0.7894
H548     H     0.1265   0.9458   0.6759
H549     H     0.1759   0.9458   0.6265
H550     H     0.3042   0.1235   0.6759
H551     H     0.3042   0.0741   0.6265
Be552     Be     0.2894   0.0102   0.6
Be553     Be     0.2398   0.9606   0.6
H554     H     0.6759   0.1265   0.9458
H555     H     0.6265   0.1759   0.9458
H556     H     0.6759   0.3042   0.1235
H557     H     0.6265   0.3042   0.0741
Be558     Be     0.6   0.2894   0.0102
Be559     Be     0.6   0.2398   0.9606
Be560     Be     0.7398   0.2894   0.15
Be561     Be     0.7894   0.2398   0.15
H562     H     0.8042   0.1759   0.1235
H563     H     0.8042   0.1265   0.0741
Be564     Be     0.7894   0.1   0.0102
Be565     Be     0.7398   0.1   0.9606
H566     H     0.1265   0.3042   0.5741
H567     H     0.1759   0.3042   0.6235
H568     H     0.3042   0.1265   0.5741
H569     H     0.3042   0.1759   0.6235
Be570     Be     0.2894   0.2398   0.65
Be571     Be     0.2398   0.2894   0.65
Be572     Be     0.1   0.2894   0.5102
Be573     Be     0.1   0.2398   0.4606
H574     H     0.1265   0.1759   0.4458
H575     H     0.1759   0.1265   0.4458
Be576     Be     0.2398   0.1   0.4606
Be577     Be     0.2894   0.1   0.5102
H578     H     0.3042   0.5741   0.1265
H579     H     0.3042   0.6235   0.1759
H580     H     0.1265   0.5741   0.3042
H581     H     0.1759   0.6235   0.3042
Be582     Be     0.2894   0.65   0.2398
Be583     Be     0.2398   0.65   0.2894
Be584     Be     0.2894   0.5102   0.1
Be585     Be     0.2398   0.4606   0.1
H586     H     0.1759   0.4458   0.1265
H587     H     0.1265   0.4458   0.1759
Be588     Be     0.1   0.4606   0.2398
Be589     Be     0.1   0.5102   0.2894
S590     S     0.8726   0.1938   0.1414
S591     S     0.8726   0.1414   0.1938
S592     S     0.1086   0.3774   0.1938
S593     S     0.1086   0.1938   0.3774
S594     S     0.0562   0.3774   0.1414
C595     C     0.94   0.1252   0.1755
C596     C     0.94   0.1755   0.1252
Er597     Er     0.1423   0.2433   0.1933
Er598     Er     0.1423   0.1933   0.2433
Er599     Er     0.0567   0.1077   0.2433
Er600     Er     0.0067   0.1077   0.1933
C601     C     0.1248   0.1755   0.31
C602     C     0.0745   0.1252   0.31
Er603     Er     0.0567   0.2433   0.1077
Er604     Er     0.0067   0.1933   0.1077
C605     C     0.0745   0.31   0.1252
C606     C     0.1248   0.31   0.1755
Li607     Li     0.9186   0.2412   0.1071
Li608     Li     0.1429   0.2412   0.3314
Li609     Li     0.9186   0.1071   0.2412
Li610     Li     0.0088   0.1071   0.3314
Li611     Li     0.0088   0.3314   0.1071
Li612     Li     0.1429   0.3314   0.2412
S613     S     0.0562   0.1414   0.3774
S614     S     0.1414   0.8726   0.1938
S615     S     0.1938   0.8726   0.1414
S616     S     0.1938   0.1086   0.3774
S617     S     0.3774   0.1086   0.1938
S618     S     0.1414   0.0562   0.3774
C619     C     0.1755   0.94   0.1252
C620     C     0.1252   0.94   0.1755
Er621     Er     0.1933   0.0067   0.1077
Er622     Er     0.2433   0.0567   0.1077
Er623     Er     0.1077   0.0067   0.1933
Er624     Er     0.1077   0.0567   0.2433
C625     C     0.31   0.1248   0.1755
C626     C     0.31   0.0745   0.1252
C627     C     0.1252   0.0745   0.31
C628     C     0.1755   0.1248   0.31
Er629     Er     0.1933   0.1423   0.2433
Er630     Er     0.2433   0.1423   0.1933
Li631     Li     0.1071   0.9186   0.2412
Li632     Li     0.3314   0.0088   0.1071
Li633     Li     0.1071   0.0088   0.3314
Li634     Li     0.2412   0.9186   0.1071
Li635     Li     0.3314   0.1429   0.2412
Li636     Li     0.2412   0.1429   0.3314
S637     S     0.3774   0.0562   0.1414
S638     S     0.1938   0.1414   0.8726
S639     S     0.1414   0.1938   0.8726
S640     S     0.3774   0.1414   0.0562
S641     S     0.1938   0.3774   0.1086
S642     S     0.1414   0.3774   0.0562
Er643     Er     0.1933   0.2433   0.1423
Er644     Er     0.2433   0.1933   0.1423
Er645     Er     0.1077   0.2433   0.0567
Er646     Er     0.1077   0.1933   0.0067
C647     C     0.1755   0.31   0.1248
C648     C     0.1252   0.31   0.0745
C649     C     0.1252   0.1755   0.94
C650     C     0.1755   0.1252   0.94
C651     C     0.31   0.1252   0.0745
C652     C     0.31   0.1755   0.1248
Er653     Er     0.1933   0.1077   0.0067
Er654     Er     0.2433   0.1077   0.0567
Li655     Li     0.1071   0.2412   0.9186
Li656     Li     0.3314   0.2412   0.1429
Li657     Li     0.1071   0.3314   0.0088
Li658     Li     0.3314   0.1071   0.0088
Li659     Li     0.2412   0.3314   0.1429
Li660     Li     0.2412   0.1071   0.9186
S661     S     0.3774   0.1938   0.1086
S662     S     0.1086   0.0562   0.8726
S663     S     0.8726   0.1086   0.0562
S664     S     0.8726   0.0562   0.1086
S665     S     0.0562   0.8726   0.1086
S666     S     0.1086   0.8726   0.0562
C667     C     0.94   0.1248   0.0745
C668     C     0.94   0.0745   0.1248
Er669     Er     0.0567   0.1423   0.0067
Er670     Er     0.0067   0.1423   0.0567
C671     C     0.1248   0.0745   0.94
C672     C     0.0745   0.1248   0.94
Er673     Er     0.1423   0.0067   0.0567
Er674     Er     0.1423   0.0567   0.0067
C675     C     0.0745   0.94   0.1248
C676     C     0.1248   0.94   0.0745
Er677     Er     0.0067   0.0567   0.1423
Er678     Er     0.0567   0.0067   0.1423
Li679     Li     0.9186   0.0088   0.1429
Li680     Li     0.9186   0.1429   0.0088
Li681     Li     0.0088   0.1429   0.9186
Li682     Li     0.1429   0.9186   0.0088
Li683     Li     0.0088   0.9186   0.1429
Li684     Li     0.1429   0.0088   0.9186
S685     S     0.0562   0.1086   0.8726
S686     S     0.3586   0.1226   0.9438
S687     S     0.1226   0.3062   0.8914
S688     S     0.1226   0.3586   0.9438
S689     S     0.3062   0.3586   0.1274
S690     S     0.3062   0.1226   0.8914
C691     C     0.19   0.3748   0.9255
C692     C     0.19   0.3245   0.8752
Er693     Er     0.3067   0.2567   0.8577
Er694     Er     0.2567   0.3067   0.8577
Er695     Er     0.3067   0.3923   0.9933
Er696     Er     0.2567   0.3923   0.9433
C697     C     0.3748   0.19   0.9255
C698     C     0.3245   0.19   0.8752
C699     C     0.3245   0.3748   0.06
C700     C     0.3748   0.3245   0.06
Er701     Er     0.3923   0.3067   0.9933
Er702     Er     0.3923   0.2567   0.9433
Li703     Li     0.1686   0.2588   0.8571
Li704     Li     0.2588   0.1686   0.8571
Li705     Li     0.3929   0.2588   0.0814
Li706     Li     0.2588   0.3929   0.0814
Li707     Li     0.1686   0.3929   0.9912
Li708     Li     0.3929   0.1686   0.9912
S709     S     0.3586   0.3062   0.1274
S710     S     0.3914   0.3062   0.6226
S711     S     0.4438   0.1226   0.8586
S712     S     0.4438   0.3586   0.6226
S713     S     0.3914   0.1226   0.8062
S714     S     0.6274   0.3062   0.8586
C715     C     0.4255   0.3748   0.69
C716     C     0.3752   0.3245   0.69
Er717     Er     0.4933   0.3923   0.8067
Er718     Er     0.4433   0.3923   0.7567
C719     C     0.56   0.3748   0.8245
C720     C     0.56   0.3245   0.8748
Er721     Er     0.3577   0.2567   0.8067
Er722     Er     0.3577   0.3067   0.7567
Er723     Er     0.4433   0.2567   0.8923
Er724     Er     0.4933   0.3067   0.8923
C725     C     0.3752   0.19   0.8245
C726     C     0.4255   0.19   0.8748
Li727     Li     0.3571   0.2588   0.6686
Li728     Li     0.5814   0.2588   0.8929
Li729     Li     0.4912   0.1686   0.8929
Li730     Li     0.3571   0.1686   0.7588
Li731     Li     0.4912   0.3929   0.6686
Li732     Li     0.5814   0.3929   0.7588
S733     S     0.6274   0.3586   0.8062
S734     S     0.4438   0.3914   0.1274
S735     S     0.6274   0.3914   0.9438
S736     S     0.3914   0.6274   0.9438
S737     S     0.4438   0.6274   0.8914
S738     S     0.6274   0.4438   0.8914
Er739     Er     0.4433   0.3577   0.9933
Er740     Er     0.4933   0.3577   0.9433
C741     C     0.4255   0.3752   0.06
C742     C     0.3752   0.4255   0.06
Er743     Er     0.3577   0.4433   0.9933
Er744     Er     0.3577   0.4933   0.9433
C745     C     0.56   0.4255   0.8752
C746     C     0.56   0.3752   0.9255
C747     C     0.3752   0.56   0.9255
C748     C     0.4255   0.56   0.8752
Er749     Er     0.4433   0.4933   0.8577
Er750     Er     0.4933   0.4433   0.8577
Li751     Li     0.3571   0.4912   0.0814
Li752     Li     0.4912   0.5814   0.8571
Li753     Li     0.4912   0.3571   0.0814
Li754     Li     0.5814   0.4912   0.8571
Li755     Li     0.5814   0.3571   0.9912
Li756     Li     0.3571   0.5814   0.9912
S757     S     0.3914   0.4438   0.1274
S758     S     0.1226   0.3914   0.8062
S759     S     0.3062   0.3914   0.6226
S760     S     0.1226   0.4438   0.8586
S761     S     0.3586   0.6274   0.8062
S762     S     0.3586   0.4438   0.6226
Er763     Er     0.3923   0.4933   0.8067
Er764     Er     0.3923   0.4433   0.7567
C765     C     0.3245   0.3752   0.69
C766     C     0.3748   0.4255   0.69
C767     C     0.3748   0.56   0.8245
C768     C     0.3245   0.56   0.8748
Er769     Er     0.2567   0.3577   0.8067
Er770     Er     0.3067   0.3577   0.7567
C771     C     0.19   0.3752   0.8245
C772     C     0.19   0.4255   0.8748
Er773     Er     0.3067   0.4933   0.8923
Er774     Er     0.2567   0.4433   0.8923
Li775     Li     0.1686   0.4912   0.8929
Li776     Li     0.2588   0.5814   0.8929
Li777     Li     0.3929   0.5814   0.7588
Li778     Li     0.2588   0.3571   0.6686
Li779     Li     0.3929   0.4912   0.6686
Li780     Li     0.1686   0.3571   0.7588
S781     S     0.3062   0.6274   0.8586
S782     S     0.8774   0.1086   0.6938
S783     S     0.6938   0.8726   0.6414
S784     S     0.6938   0.1086   0.8774
S785     S     0.6414   0.0562   0.8774
S786     S     0.8774   0.0562   0.6414
C787     C     0.6755   0.1248   0.81
C788     C     0.6252   0.0745   0.81
Er789     Er     0.6933   0.0067   0.6077
Er790     Er     0.7433   0.0567   0.6077
C791     C     0.81   0.0745   0.6252
C792     C     0.81   0.1248   0.6755
Er793     Er     0.7433   0.1423   0.6933
Er794     Er     0.6933   0.1423   0.7433
C795     C     0.6252   0.94   0.6755
C796     C     0.6755   0.94   0.6252
Er797     Er     0.6077   0.0067   0.6933
Er798     Er     0.6077   0.0567   0.7433
Li799     Li     0.8314   0.0088   0.6071
Li800     Li     0.6071   0.0088   0.8314
Li801     Li     0.7412   0.9186   0.6071
Li802     Li     0.8314   0.1429   0.7412
Li803     Li     0.6071   0.9186   0.7412
Li804     Li     0.7412   0.1429   0.8314
S805     S     0.6414   0.8726   0.6938
S806     S     0.6086   0.8726   0.5562
S807     S     0.5562   0.8726   0.6086
S808     S     0.3726   0.1086   0.5562
S809     S     0.5562   0.1086   0.3726
S810     S     0.6086   0.0562   0.3726
C811     C     0.5745   0.94   0.6248
C812     C     0.6248   0.94   0.5745
Er813     Er     0.6423   0.0067   0.5567
Er814     Er     0.6423   0.0567   0.5067
C815     C     0.5745   0.1248   0.44
C816     C     0.6248   0.0745   0.44
Er817     Er     0.5567   0.0067   0.6423
Er818     Er     0.5067   0.0567   0.6423
C819     C     0.44   0.1248   0.5745
C820     C     0.44   0.0745   0.6248
Er821     Er     0.5567   0.1423   0.5067
Er822     Er     0.5067   0.1423   0.5567
Li823     Li     0.6429   0.0088   0.4186
Li824     Li     0.4186   0.0088   0.6429
Li825     Li     0.4186   0.1429   0.5088
Li826     Li     0.6429   0.9186   0.5088
Li827     Li     0.5088   0.9186   0.6429
Li828     Li     0.5088   0.1429   0.4186
S829     S     0.3726   0.0562   0.6086
S830     S     0.6086   0.3774   0.6938
S831     S     0.5562   0.1414   0.8774
S832     S     0.6086   0.1938   0.8774
S833     S     0.3726   0.1414   0.6938
S834     S     0.3726   0.1938   0.6414
C835     C     0.5745   0.1252   0.81
C836     C     0.6248   0.1755   0.81
Er837     Er     0.5067   0.1077   0.6933
Er838     Er     0.5567   0.1077   0.7433
Er839     Er     0.5567   0.2433   0.6077
Er840     Er     0.5067   0.1933   0.6077
C841     C     0.44   0.1755   0.6252
C842     C     0.44   0.1252   0.6755
Er843     Er     0.6423   0.2433   0.6933
Er844     Er     0.6423   0.1933   0.7433
C845     C     0.5745   0.31   0.6252
C846     C     0.6248   0.31   0.6755
Li847     Li     0.4186   0.2412   0.6071
Li848     Li     0.6429   0.2412   0.8314
Li849     Li     0.4186   0.1071   0.7412
Li850     Li     0.5088   0.3314   0.6071
Li851     Li     0.5088   0.1071   0.8314
Li852     Li     0.6429   0.3314   0.7412
S853     S     0.5562   0.3774   0.6414
S854     S     0.8774   0.1414   0.5562
S855     S     0.8774   0.1938   0.6086
S856     S     0.6938   0.3774   0.6086
S857     S     0.6938   0.1414   0.3726
S858     S     0.6414   0.1938   0.3726
Er859     Er     0.6077   0.2433   0.5567
Er860     Er     0.6077   0.1933   0.5067
Er861     Er     0.6933   0.2433   0.6423
Er862     Er     0.7433   0.1933   0.6423
C863     C     0.6252   0.31   0.5745
C864     C     0.6755   0.31   0.6248
C865     C     0.81   0.1252   0.5745
C866     C     0.81   0.1755   0.6248
C867     C     0.6755   0.1252   0.44
C868     C     0.6252   0.1755   0.44
Er869     Er     0.7433   0.1077   0.5567
Er870     Er     0.6933   0.1077   0.5067
Li871     Li     0.6071   0.2412   0.4186
Li872     Li     0.8314   0.2412   0.6429
Li873     Li     0.7412   0.3314   0.6429
Li874     Li     0.8314   0.1071   0.5088
Li875     Li     0.6071   0.3314   0.5088
Li876     Li     0.7412   0.1071   0.4186
S877     S     0.6414   0.3774   0.5562
S878     S     0.6086   0.5562   0.8726
S879     S     0.5562   0.6086   0.8726
S880     S     0.5562   0.3726   0.1086
S881     S     0.3726   0.5562   0.1086
S882     S     0.6086   0.3726   0.0562
Er883     Er     0.5567   0.6423   0.0067
Er884     Er     0.5067   0.6423   0.0567
C885     C     0.44   0.5745   0.1248
C886     C     0.44   0.6248   0.0745
Er887     Er     0.5567   0.5067   0.1423
Er888     Er     0.5067   0.5567   0.1423
C889     C     0.5745   0.44   0.1248
C890     C     0.6248   0.44   0.0745
Er891     Er     0.6423   0.5567   0.0067
Er892     Er     0.6423   0.5067   0.0567
C893     C     0.6248   0.5745   0.94
C894     C     0.5745   0.6248   0.94
Li895     Li     0.4186   0.6429   0.0088
Li896     Li     0.6429   0.4186   0.0088
Li897     Li     0.4186   0.5088   0.1429
Li898     Li     0.5088   0.6429   0.9186
Li899     Li     0.5088   0.4186   0.1429
Li900     Li     0.6429   0.5088   0.9186
S901     S     0.3726   0.6086   0.0562
S902     S     0.6938   0.8774   0.1086
S903     S     0.6414   0.6938   0.8726
S904     S     0.8774   0.6938   0.1086
S905     S     0.6414   0.8774   0.0562
S906     S     0.8774   0.6414   0.0562
C907     C     0.81   0.6755   0.1248
C908     C     0.81   0.6252   0.0745
Er909     Er     0.6933   0.7433   0.1423
Er910     Er     0.7433   0.6933   0.1423
C911     C     0.6755   0.81   0.1248
C912     C     0.6252   0.81   0.0745
Er913     Er     0.6077   0.6933   0.0067
Er914     Er     0.6077   0.7433   0.0567
C915     C     0.6755   0.6252   0.94
C916     C     0.6252   0.6755   0.94
Er917     Er     0.6933   0.6077   0.0067
Er918     Er     0.7433   0.6077   0.0567
Li919     Li     0.8314   0.6071   0.0088
Li920     Li     0.6071   0.8314   0.0088
Li921     Li     0.6071   0.7412   0.9186
Li922     Li     0.7412   0.8314   0.1429
Li923     Li     0.7412   0.6071   0.9186
Li924     Li     0.8314   0.7412   0.1429
S925     S     0.6938   0.6414   0.8726
S926     S     0.6938   0.6086   0.3774
S927     S     0.8774   0.5562   0.1414
S928     S     0.8774   0.6086   0.1938
S929     S     0.6938   0.3726   0.1414
S930     S     0.6414   0.3726   0.1938
C931     C     0.81   0.6248   0.1755
C932     C     0.81   0.5745   0.1252
C933     C     0.6252   0.5745   0.31
C934     C     0.6755   0.6248   0.31
Er935     Er     0.6933   0.6423   0.2433
Er936     Er     0.7433   0.6423   0.1933
Er937     Er     0.6077   0.5567   0.2433
Er938     Er     0.6077   0.5067   0.1933
Er939     Er     0.6933   0.5067   0.1077
Er940     Er     0.7433   0.5567   0.1077
C941     C     0.6252   0.44   0.1755
C942     C     0.6755   0.44   0.1252
Li943     Li     0.6071   0.4186   0.2412
Li944     Li     0.7412   0.4186   0.1071
Li945     Li     0.8314   0.6429   0.2412
Li946     Li     0.6071   0.5088   0.3314
Li947     Li     0.8314   0.5088   0.1071
Li948     Li     0.7412   0.6429   0.3314
S949     S     0.6414   0.5562   0.3774
S950     S     0.5562   0.8774   0.1414
S951     S     0.6086   0.8774   0.1938
S952     S     0.6086   0.6938   0.3774
S953     S     0.3726   0.6938   0.1414
S954     S     0.3726   0.6414   0.1938
C955     C     0.5745   0.81   0.1252
C956     C     0.6248   0.81   0.1755
Er957     Er     0.6423   0.6933   0.2433
Er958     Er     0.6423   0.7433   0.1933
C959     C     0.5745   0.6252   0.31
C960     C     0.6248   0.6755   0.31
Er961     Er     0.5067   0.6933   0.1077
Er962     Er     0.5567   0.7433   0.1077
C963     C     0.44   0.6755   0.1252
C964     C     0.44   0.6252   0.1755
Er965     Er     0.5567   0.6077   0.2433
Er966     Er     0.5067   0.6077   0.1933
Li967     Li     0.4186   0.6071   0.2412
Li968     Li     0.6429   0.8314   0.2412
Li969     Li     0.6429   0.7412   0.3314
Li970     Li     0.4186   0.7412   0.1071
Li971     Li     0.5088   0.6071   0.3314
Li972     Li     0.5088   0.8314   0.1071
S973     S     0.5562   0.6414   0.3774
S974     S     0.8586   0.4438   0.1226
S975     S     0.6226   0.4438   0.3586
S976     S     0.8062   0.3914   0.1226
S977     S     0.8586   0.6274   0.3062
S978     S     0.6226   0.3914   0.3062
Er979     Er     0.8067   0.4933   0.3923
Er980     Er     0.7567   0.4433   0.3923
C981     C     0.8245   0.56   0.3748
C982     C     0.8748   0.56   0.3245
C983     C     0.69   0.4255   0.3748
C984     C     0.69   0.3752   0.3245
Er985     Er     0.8067   0.3577   0.2567
Er986     Er     0.7567   0.3577   0.3067
C987     C     0.8245   0.3752   0.19
C988     C     0.8748   0.4255   0.19
Er989     Er     0.8923   0.4433   0.2567
Er990     Er     0.8923   0.4933   0.3067
Li991     Li     0.8929   0.4912   0.1686
Li992     Li     0.8929   0.5814   0.2588
Li993     Li     0.7588   0.3571   0.1686
Li994     Li     0.6686   0.3571   0.2588
Li995     Li     0.6686   0.4912   0.3929
Li996     Li     0.7588   0.5814   0.3929
S997     S     0.8062   0.6274   0.3586
S998     S     0.8062   0.1226   0.3914
S999     S     0.6226   0.3062   0.3914
S1000     S     0.8586   0.1226   0.4438
S1001     S     0.6226   0.3586   0.4438
S1002     S     0.8062   0.3586   0.6274
Er1003     Er     0.8067   0.3923   0.4933
Er1004     Er     0.7567   0.3923   0.4433
C1005     C     0.69   0.3245   0.3752
C1006     C     0.69   0.3748   0.4255
C1007     C     0.8245   0.3748   0.56
C1008     C     0.8748   0.3245   0.56
Er1009     Er     0.8067   0.2567   0.3577
Er1010     Er     0.7567   0.3067   0.3577
Er1011     Er     0.8923   0.3067   0.4933
Er1012     Er     0.8923   0.2567   0.4433
C1013     C     0.8245   0.19   0.3752
C1014     C     0.8748   0.19   0.4255
Li1015     Li     0.8929   0.2588   0.5814
Li1016     Li     0.8929   0.1686   0.4912
Li1017     Li     0.6686   0.2588   0.3571
Li1018     Li     0.6686   0.3929   0.4912
Li1019     Li     0.7588   0.3929   0.5814
Li1020     Li     0.7588   0.1686   0.3571
S1021     S     0.8586   0.3062   0.6274
S1022     S     0.1274   0.3062   0.3586
S1023     S     0.9438   0.3586   0.1226
S1024     S     0.9438   0.1226   0.3586
S1025     S     0.8914   0.3062   0.1226
S1026     S     0.1274   0.3586   0.3062
C1027     C     0.8752   0.19   0.3245
C1028     C     0.9255   0.19   0.3748
Er1029     Er     0.8577   0.2567   0.3067
Er1030     Er     0.8577   0.3067   0.2567
C1031     C     0.9255   0.3748   0.19
C1032     C     0.8752   0.3245   0.19
C1033     C     0.06   0.3748   0.3245
C1034     C     0.06   0.3245   0.3748
Er1035     Er     0.9933   0.3923   0.3067
Er1036     Er     0.9433   0.3923   0.2567
Er1037     Er     0.9933   0.3067   0.3923
Er1038     Er     0.9433   0.2567   0.3923
Li1039     Li     0.8571   0.2588   0.1686
Li1040     Li     0.0814   0.2588   0.3929
Li1041     Li     0.8571   0.1686   0.2588
Li1042     Li     0.0814   0.3929   0.2588
Li1043     Li     0.9912   0.1686   0.3929
Li1044     Li     0.9912   0.3929   0.1686
S1045     S     0.8914   0.1226   0.3062
S1046     S     0.1274   0.4438   0.3914
S1047     S     0.8914   0.4438   0.6274
S1048     S     0.9438   0.3914   0.6274
S1049     S     0.9438   0.6274   0.3914
S1050     S     0.8914   0.6274   0.4438
Er1051     Er     0.9933   0.4433   0.3577
Er1052     Er     0.9433   0.4933   0.3577
C1053     C     0.06   0.4255   0.3752
C1054     C     0.06   0.3752   0.4255
Er1055     Er     0.9933   0.3577   0.4433
Er1056     Er     0.9433   0.3577   0.4933
C1057     C     0.9255   0.56   0.3752
C1058     C     0.8752   0.56   0.4255
C1059     C     0.9255   0.3752   0.56
C1060     C     0.8752   0.4255   0.56
Er1061     Er     0.8577   0.4933   0.4433
Er1062     Er     0.8577   0.4433   0.4933
Li1063     Li     0.0814   0.3571   0.4912
Li1064     Li     0.0814   0.4912   0.3571
Li1065     Li     0.8571   0.5814   0.4912
Li1066     Li     0.8571   0.4912   0.5814
Li1067     Li     0.9912   0.5814   0.3571
Li1068     Li     0.9912   0.3571   0.5814
S1069     S     0.1274   0.3914   0.4438
S1070     S     0.1274   0.8914   0.9438
S1071     S     0.9438   0.1274   0.8914
S1072     S     0.8914   0.9438   0.1274
S1073     S     0.1274   0.9438   0.8914
S1074     S     0.8914   0.1274   0.9438
C1075     C     0.06   0.9255   0.8752
C1076     C     0.06   0.8752   0.9255
Er1077     Er     0.9933   0.8577   0.9433
Er1078     Er     0.9433   0.8577   0.9933
C1079     C     0.8752   0.06   0.9255
C1080     C     0.9255   0.06   0.8752
Er1081     Er     0.9433   0.9933   0.8577
Er1082     Er     0.9933   0.9433   0.8577
C1083     C     0.8752   0.9255   0.06
C1084     C     0.9255   0.8752   0.06
Er1085     Er     0.8577   0.9433   0.9933
Er1086     Er     0.8577   0.9933   0.9433
Li1087     Li     0.9912   0.8571   0.0814
Li1088     Li     0.8571   0.0814   0.9912
Li1089     Li     0.0814   0.9912   0.8571
Li1090     Li     0.0814   0.8571   0.9912
Li1091     Li     0.8571   0.9912   0.0814
Li1092     Li     0.9912   0.0814   0.8571
S1093     S     0.9438   0.8914   0.1274
S1094     S     0.8586   0.8062   0.1274
S1095     S     0.8062   0.8586   0.1274
S1096     S     0.6226   0.8586   0.9438
S1097     S     0.8586   0.6226   0.9438
S1098     S     0.6226   0.8062   0.8914
Er1099     Er     0.8067   0.8923   0.9933
Er1100     Er     0.7567   0.8923   0.9433
C1101     C     0.8245   0.8748   0.06
C1102     C     0.8748   0.8245   0.06
Er1103     Er     0.8923   0.8067   0.9933
Er1104     Er     0.8923   0.7567   0.9433
C1105     C     0.69   0.8245   0.8752
C1106     C     0.69   0.8748   0.9255
C1107     C     0.8245   0.69   0.8752
C1108     C     0.8748   0.69   0.9255
Er1109     Er     0.7567   0.8067   0.8577
Er1110     Er     0.8067   0.7567   0.8577
Li1111     Li     0.7588   0.8929   0.0814
Li1112     Li     0.6686   0.7588   0.8571
Li1113     Li     0.8929   0.7588   0.0814
Li1114     Li     0.7588   0.6686   0.8571
Li1115     Li     0.8929   0.6686   0.9912
Li1116     Li     0.6686   0.8929   0.9912
S1117     S     0.8062   0.6226   0.8914
S1118     S     0.8062   0.1274   0.8586
S1119     S     0.8586   0.1274   0.8062
S1120     S     0.6226   0.8914   0.8062
S1121     S     0.8062   0.8914   0.6226
S1122     S     0.6226   0.9438   0.8586
Er1123     Er     0.8923   0.9933   0.8067
Er1124     Er     0.8923   0.9433   0.7567
C1125     C     0.8748   0.06   0.8245
C1126     C     0.8245   0.06   0.8748
Er1127     Er     0.8067   0.9933   0.8923
Er1128     Er     0.7567   0.9433   0.8923
C1129     C     0.69   0.8752   0.8245
C1130     C     0.69   0.9255   0.8748
C1131     C     0.8748   0.9255   0.69
C1132     C     0.8245   0.8752   0.69
Er1133     Er     0.8067   0.8577   0.7567
Er1134     Er     0.7567   0.8577   0.8067
Li1135     Li     0.8929   0.0814   0.7588
Li1136     Li     0.7588   0.8571   0.6686
Li1137     Li     0.6686   0.8571   0.7588
Li1138     Li     0.7588   0.0814   0.8929
Li1139     Li     0.8929   0.9912   0.6686
Li1140     Li     0.6686   0.9912   0.8929
S1141     S     0.8586   0.9438   0.6226
S1142     S     0.1274   0.8586   0.8062
S1143     S     0.1274   0.8062   0.8586
S1144     S     0.8914   0.8062   0.6226
S1145     S     0.9438   0.8586   0.6226
S1146     S     0.9438   0.6226   0.8586
Er1147     Er     0.9933   0.8067   0.8923
Er1148     Er     0.9433   0.7567   0.8923
C1149     C     0.06   0.8245   0.8748
C1150     C     0.06   0.8748   0.8245
Er1151     Er     0.9933   0.8923   0.8067
Er1152     Er     0.9433   0.8923   0.7567
C1153     C     0.8752   0.8245   0.69
C1154     C     0.9255   0.8748   0.69
C1155     C     0.8752   0.69   0.8245
C1156     C     0.9255   0.69   0.8748
Er1157     Er     0.8577   0.7567   0.8067
Er1158     Er     0.8577   0.8067   0.7567
Li1159     Li     0.0814   0.7588   0.8929
Li1160     Li     0.8571   0.6686   0.7588
Li1161     Li     0.8571   0.7588   0.6686
Li1162     Li     0.0814   0.8929   0.7588
Li1163     Li     0.9912   0.6686   0.8929
Li1164     Li     0.9912   0.8929   0.6686
S1165     S     0.8914   0.6226   0.8062
S1166     S     0.3914   0.9438   0.6274
S1167     S     0.3914   0.1274   0.4438
S1168     S     0.6274   0.9438   0.3914
S1169     S     0.4438   0.8914   0.6274
S1170     S     0.6274   0.8914   0.4438
C1171     C     0.56   0.9255   0.3752
C1172     C     0.56   0.8752   0.4255
Er1173     Er     0.4433   0.8577   0.4933
Er1174     Er     0.4933   0.8577   0.4433
C1175     C     0.3752   0.9255   0.56
C1176     C     0.4255   0.8752   0.56
Er1177     Er     0.3577   0.9933   0.4433
Er1178     Er     0.3577   0.9433   0.4933
C1179     C     0.3752   0.06   0.4255
C1180     C     0.4255   0.06   0.3752
Er1181     Er     0.4433   0.9933   0.3577
Er1182     Er     0.4933   0.9433   0.3577
Li1183     Li     0.5814   0.8571   0.4912
Li1184     Li     0.4912   0.8571   0.5814
Li1185     Li     0.3571   0.0814   0.4912
Li1186     Li     0.4912   0.0814   0.3571
Li1187     Li     0.3571   0.9912   0.5814
Li1188     Li     0.5814   0.9912   0.3571
S1189     S     0.4438   0.1274   0.3914
S1190     S     0.1226   0.8062   0.3914
S1191     S     0.1226   0.8586   0.4438
S1192     S     0.3062   0.6226   0.3914
S1193     S     0.3586   0.6226   0.4438
S1194     S     0.3586   0.8062   0.6274
C1195     C     0.3245   0.8748   0.56
C1196     C     0.3748   0.8245   0.56
Er1197     Er     0.3923   0.8067   0.4933
Er1198     Er     0.3923   0.7567   0.4433
C1199     C     0.3748   0.69   0.4255
C1200     C     0.3245   0.69   0.3752
Er1201     Er     0.2567   0.8067   0.3577
Er1202     Er     0.3067   0.7567   0.3577
C1203     C     0.19   0.8245   0.3752
C1204     C     0.19   0.8748   0.4255
Er1205     Er     0.2567   0.8923   0.4433
Er1206     Er     0.3067   0.8923   0.4933
Li1207     Li     0.1686   0.8929   0.4912
Li1208     Li     0.1686   0.7588   0.3571
Li1209     Li     0.2588   0.6686   0.3571
Li1210     Li     0.2588   0.8929   0.5814
Li1211     Li     0.3929   0.6686   0.4912
Li1212     Li     0.3929   0.7588   0.5814
S1213     S     0.3062   0.8586   0.6274
S1214     S     0.3586   0.1274   0.3062
S1215     S     0.1226   0.9438   0.3586
S1216     S     0.3586   0.9438   0.1226
S1217     S     0.1226   0.8914   0.3062
S1218     S     0.3062   0.1274   0.3586
C1219     C     0.19   0.9255   0.3748
C1220     C     0.19   0.8752   0.3245
Er1221     Er     0.2567   0.8577   0.3067
Er1222     Er     0.3067   0.8577   0.2567
C1223     C     0.3245   0.8752   0.19
C1224     C     0.3748   0.9255   0.19
Er1225     Er     0.3923   0.9933   0.3067
Er1226     Er     0.3923   0.9433   0.2567
Er1227     Er     0.3067   0.9933   0.3923
Er1228     Er     0.2567   0.9433   0.3923
C1229     C     0.3748   0.06   0.3245
C1230     C     0.3245   0.06   0.3748
Li1231     Li     0.3929   0.0814   0.2588
Li1232     Li     0.1686   0.8571   0.2588
Li1233     Li     0.2588   0.8571   0.1686
Li1234     Li     0.2588   0.0814   0.3929
Li1235     Li     0.3929   0.9912   0.1686
Li1236     Li     0.1686   0.9912   0.3929
S1237     S     0.3062   0.8914   0.1226
S1238     S     0.3914   0.8062   0.1226
S1239     S     0.3914   0.6226   0.3062
S1240     S     0.4438   0.8586   0.1226
S1241     S     0.6274   0.8062   0.3586
S1242     S     0.4438   0.6226   0.3586
C1243     C     0.56   0.8245   0.3748
C1244     C     0.56   0.8748   0.3245
Er1245     Er     0.3577   0.8067   0.2567
Er1246     Er     0.3577   0.7567   0.3067
C1247     C     0.3752   0.8245   0.19
C1248     C     0.4255   0.8748   0.19
Er1249     Er     0.4433   0.8923   0.2567
Er1250     Er     0.4933   0.8923   0.3067
C1251     C     0.3752   0.69   0.3245
C1252     C     0.4255   0.69   0.3748
Er1253     Er     0.4933   0.8067   0.3923
Er1254     Er     0.4433   0.7567   0.3923
Li1255     Li     0.5814   0.8929   0.2588
Li1256     Li     0.4912   0.8929   0.1686
Li1257     Li     0.5814   0.7588   0.3929
Li1258     Li     0.3571   0.6686   0.2588
Li1259     Li     0.4912   0.6686   0.3929
Li1260     Li     0.3571   0.7588   0.1686
S1261     S     0.6274   0.8586   0.3062
S1262     S     0.8726   0.6086   0.5562
S1263     S     0.8726   0.5562   0.6086
S1264     S     0.1086   0.5562   0.3726
S1265     S     0.1086   0.3726   0.5562
S1266     S     0.0562   0.6086   0.3726
Er1267     Er     0.1423   0.5567   0.5067
Er1268     Er     0.1423   0.5067   0.5567
C1269     C     0.1248   0.44   0.5745
C1270     C     0.0745   0.44   0.6248
Er1271     Er     0.0067   0.5567   0.6423
Er1272     Er     0.0567   0.5067   0.6423
C1273     C     0.94   0.5745   0.6248
C1274     C     0.94   0.6248   0.5745
Er1275     Er     0.0067   0.6423   0.5567
Er1276     Er     0.0567   0.6423   0.5067
C1277     C     0.1248   0.5745   0.44
C1278     C     0.0745   0.6248   0.44
Li1279     Li     0.0088   0.4186   0.6429
Li1280     Li     0.0088   0.6429   0.4186
Li1281     Li     0.9186   0.6429   0.5088
Li1282     Li     0.1429   0.5088   0.4186
Li1283     Li     0.9186   0.5088   0.6429
Li1284     Li     0.1429   0.4186   0.5088
S1285     S     0.0562   0.3726   0.6086
S1286     S     0.1414   0.5562   0.8774
S1287     S     0.1938   0.6086   0.8774
S1288     S     0.3774   0.6086   0.6938
S1289     S     0.1414   0.3726   0.6938
S1290     S     0.1938   0.3726   0.6414
C1291     C     0.1252   0.5745   0.81
C1292     C     0.1755   0.6248   0.81
C1293     C     0.31   0.5745   0.6252
C1294     C     0.31   0.6248   0.6755
Er1295     Er     0.2433   0.6423   0.6933
Er1296     Er     0.1933   0.6423   0.7433
Er1297     Er     0.1077   0.5067   0.6933
Er1298     Er     0.1077   0.5567   0.7433
C1299     C     0.1755   0.44   0.6252
C1300     C     0.1252   0.44   0.6755
Er1301     Er     0.2433   0.5567   0.6077
Er1302     Er     0.1933   0.5067   0.6077
Li1303     Li     0.2412   0.4186   0.6071
Li1304     Li     0.3314   0.6429   0.7412
Li1305     Li     0.2412   0.6429   0.8314
Li1306     Li     0.1071   0.4186   0.7412
Li1307     Li     0.3314   0.5088   0.6071
Li1308     Li     0.1071   0.5088   0.8314
S1309     S     0.3774   0.5562   0.6414
S1310     S     0.1414   0.8774   0.5562
S1311     S     0.1938   0.8774   0.6086
S1312     S     0.1414   0.6938   0.3726
S1313     S     0.3774   0.6414   0.5562
S1314     S     0.1938   0.6414   0.3726
C1315     C     0.1252   0.81   0.5745
C1316     C     0.1755   0.81   0.6248
Er1317     Er     0.1077   0.6933   0.5067
Er1318     Er     0.1077   0.7433   0.5567
Er1319     Er     0.2433   0.6077   0.5567
Er1320     Er     0.1933   0.6077   0.5067
C1321     C     0.1252   0.6755   0.44
C1322     C     0.1755   0.6252   0.44
C1323     C     0.31   0.6755   0.6248
C1324     C     0.31   0.6252   0.5745
Er1325     Er     0.2433   0.6933   0.6423
Er1326     Er     0.1933   0.7433   0.6423
Li1327     Li     0.1071   0.7412   0.4186
Li1328     Li     0.3314   0.6071   0.5088
Li1329     Li     0.2412   0.8314   0.6429
Li1330     Li     0.2412   0.6071   0.4186
Li1331     Li     0.3314   0.7412   0.6429
Li1332     Li     0.1071   0.8314   0.5088
S1333     S     0.3774   0.6938   0.6086
S1334     S     0.1086   0.6938   0.8774
S1335     S     0.8726   0.6414   0.6938
S1336     S     0.1086   0.8774   0.6938
S1337     S     0.0562   0.8774   0.6414
S1338     S     0.0562   0.6414   0.8774
Er1339     Er     0.0067   0.6933   0.6077
Er1340     Er     0.0567   0.7433   0.6077
C1341     C     0.94   0.6755   0.6252
C1342     C     0.94   0.6252   0.6755
C1343     C     0.1248   0.81   0.6755
C1344     C     0.0745   0.81   0.6252
Er1345     Er     0.0067   0.6077   0.6933
Er1346     Er     0.0567   0.6077   0.7433
C1347     C     0.0745   0.6252   0.81
C1348     C     0.1248   0.6755   0.81
Er1349     Er     0.1423   0.6933   0.7433
Er1350     Er     0.1423   0.7433   0.6933
Li1351     Li     0.0088   0.6071   0.8314
Li1352     Li     0.0088   0.8314   0.6071
Li1353     Li     0.9186   0.6071   0.7412
Li1354     Li     0.1429   0.7412   0.8314
Li1355     Li     0.9186   0.7412   0.6071
Li1356     Li     0.1429   0.8314   0.7412
S1357     S     0.8726   0.6938   0.6414
V1358     V     0.7025   0.5992   0.1508
V1359     V     0.6508   0.5992   0.2025
V1360     V     0.4008   0.2975   0.8492
V1361     V     0.5992   0.2025   0.6508
V1362     V     0.4525   0.8492   0.3492
V1363     V     0.1508   0.2025   0.0992
V1364     V     0.0475   0.0992   0.0992
V1365     V     0.0992   0.0475   0.0992
V1366     V     0.0992   0.2025   0.1508
V1367     V     0.0992   0.0992   0.0475
V1368     V     0.8492   0.4008   0.2975
V1369     V     0.3492   0.2975   0.9008
V1370     V     0.3492   0.4525   0.8492
V1371     V     0.8492   0.3492   0.4525
V1372     V     0.1508   0.0475   0.1508
V1373     V     0.7975   0.9008   0.8492
V1374     V     0.8492   0.7975   0.9008
V1375     V     0.9008   0.8492   0.7975
V1376     V     0.2025   0.6508   0.5992
V1377     V     0.2025   0.5992   0.6508
V1378     V     0.6508   0.0475   0.6508
V1379     V     0.0475   0.6508   0.6508
V1380     V     0.0475   0.5992   0.5992
V1381     V     0.6508   0.6508   0.0475
V1382     V     0.5992   0.0475   0.5992
V1383     V     0.5992   0.5992   0.0475
V1384     V     0.0992   0.1508   0.2025
V1385     V     0.6508   0.2025   0.5992
V1386     V     0.5992   0.6508   0.2025
V1387     V     0.4008   0.3492   0.7975
V1388     V     0.0992   0.5992   0.5475
V1389     V     0.1508   0.5475   0.6508
V1390     V     0.5992   0.0992   0.5475
V1391     V     0.5475   0.6508   0.1508
V1392     V     0.7975   0.4008   0.3492
V1393     V     0.7975   0.3492   0.4008
V1394     V     0.1508   0.5992   0.7025
V1395     V     0.3492   0.4008   0.7975
V1396     V     0.6508   0.5475   0.1508
V1397     V     0.6508   0.7025   0.0992
V1398     V     0.0992   0.6508   0.7025
V1399     V     0.7025   0.1508   0.5992
V1400     V     0.7025   0.0992   0.6508
V1401     V     0.0992   0.5475   0.5992
V1402     V     0.1508   0.6508   0.5475
V1403     V     0.5475   0.0992   0.5992
V1404     V     0.5475   0.1508   0.6508
V1405     V     0.5475   0.5992   0.0992
V1406     V     0.5992   0.5475   0.0992
Ti1407     Ti     0.2624   0.0905   0.9876
Ti1408     Ti     0.1595   0.9876   0.9876
Ti1409     Ti     0.9876   0.9876   0.1595
Ti1410     Ti     0.9876   0.2624   0.0905
Ti1411     Ti     0.2376   0.0124   0.4095
Ti1412     Ti     0.2624   0.9876   0.0905
Ti1413     Ti     0.0124   0.2376   0.4095
Ti1414     Ti     0.9876   0.5905   0.7624
Ti1415     Ti     0.0124   0.4095   0.2376
Ti1416     Ti     0.2376   0.4095   0.0124
Ti1417     Ti     0.1595   0.2624   0.2624
Ti1418     Ti     0.2624   0.2624   0.1595
Ti1419     Ti     0.7376   0.9095   0.0124
Ti1420     Ti     0.0124   0.7376   0.9095
Ti1421     Ti     0.4095   0.7376   0.5124
Ti1422     Ti     0.4095   0.0124   0.2376
Ti1423     Ti     0.4876   0.1595   0.4876
Ti1424     Ti     0.4876   0.5905   0.2624
Ti1425     Ti     0.4876   0.4876   0.1595
Ti1426     Ti     0.2624   0.4876   0.5905
Ti1427     Ti     0.4876   0.7624   0.0905
Ti1428     Ti     0.9095   0.7376   0.0124
Ti1429     Ti     0.0124   0.3405   0.5124
Ti1430     Ti     0.0124   0.9095   0.7376
Ti1431     Ti     0.9095   0.0124   0.7376
Ti1432     Ti     0.7376   0.0124   0.9095
Ti1433     Ti     0.9876   0.0905   0.2624
Ti1434     Ti     0.4876   0.9876   0.6595
Ti1435     Ti     0.9876   0.6595   0.4876
Ti1436     Ti     0.0905   0.2624   0.9876
Ti1437     Ti     0.8405   0.0124   0.0124
Ti1438     Ti     0.0124   0.0124   0.8405
Ti1439     Ti     0.9876   0.1595   0.9876
Ti1440     Ti     0.0124   0.8405   0.0124
Ce1441     Ce     0.2286   0.9691   0.9691
Ce1442     Ce     0.9691   0.9691   0.2286
Ce1443     Ce     0.4786   0.0309   0.2191
Ce1444     Ce     0.0309   0.2191   0.4786
Ce1445     Ce     0.4786   0.2191   0.0309
Ce1446     Ce     0.0214   0.9691   0.2809
Ce1447     Ce     0.5214   0.9691   0.7809
Ce1448     Ce     0.9691   0.7809   0.5214
Ce1449     Ce     0.5214   0.7809   0.9691
Ce1450     Ce     0.4691   0.7286   0.9691
Ce1451     Ce     0.7809   0.9691   0.5214
Ce1452     Ce     0.9691   0.4691   0.7286
Ce1453     Ce     0.7286   0.9691   0.4691
Ce1454     Ce     0.7286   0.4691   0.9691
Ce1455     Ce     0.2809   0.9691   0.0214
Ce1456     Ce     0.0309   0.7714   0.0309
Ce1457     Ce     0.2809   0.0214   0.9691
Ce1458     Ce     0.7714   0.0309   0.0309
Ce1459     Ce     0.0309   0.0309   0.7714
Ce1460     Ce     0.7714   0.2191   0.2191
Ce1461     Ce     0.2191   0.7714   0.2191
Ce1462     Ce     0.2191   0.2191   0.7714
Ce1463     Ce     0.4786   0.5309   0.7191
Ce1464     Ce     0.9786   0.5309   0.2191
Ce1465     Ce     0.5309   0.0309   0.2714
Ce1466     Ce     0.2191   0.5309   0.9786
Ce1467     Ce     0.0214   0.2809   0.9691
Ce1468     Ce     0.0214   0.4691   0.7809
Ce1469     Ce     0.5214   0.4691   0.2809
Ce1470     Ce     0.0309   0.2714   0.5309
Ce1471     Ce     0.0309   0.9786   0.7191
Ce1472     Ce     0.4691   0.5214   0.2809
Ce1473     Ce     0.9786   0.2191   0.5309
Ce1474     Ce     0.9786   0.0309   0.7191
Ce1475     Ce     0.5309   0.2191   0.9786
Ce1476     Ce     0.0214   0.7809   0.4691
Ce1477     Ce     0.0309   0.5309   0.2714
Ce1478     Ce     0.2714   0.5309   0.0309
Ce1479     Ce     0.2809   0.4691   0.5214
Ce1480     Ce     0.2714   0.0309   0.5309
Ce1481     Ce     0.2191   0.9786   0.5309
Ce1482     Ce     0.7191   0.0309   0.9786
Ce1483     Ce     0.5214   0.2809   0.4691
Ce1484     Ce     0.7714   0.5309   0.5309
Ce1485     Ce     0.2809   0.7286   0.7809
Ce1486     Ce     0.5309   0.5309   0.7714
Ce1487     Ce     0.9691   0.7286   0.4691
Ce1488     Ce     0.7286   0.2809   0.7809
Ce1489     Ce     0.7809   0.2809   0.7286
Ce1490     Ce     0.7286   0.7809   0.2809
Ce1491     Ce     0.7809   0.7286   0.2809
Ce1492     Ce     0.4786   0.7191   0.5309
Ce1493     Ce     0.5309   0.9786   0.2191
Ce1494     Ce     0.9786   0.7191   0.0309
Ce1495     Ce     0.7191   0.2191   0.2714
Ce1496     Ce     0.7191   0.9786   0.0309
Ce1497     Ce     0.7191   0.2714   0.2191
Ce1498     Ce     0.5309   0.2714   0.0309
Ce1499     Ce     0.0309   0.7191   0.9786
Ce1500     Ce     0.2714   0.7191   0.2191
Ce1501     Ce     0.2191   0.7191   0.2714
Ce1502     Ce     0.2191   0.2714   0.7191
Ce1503     Ce     0.2714   0.2191   0.7191
Ce1504     Ce     0.0309   0.4786   0.2191
Ce1505     Ce     0.4691   0.0214   0.7809
Ce1506     Ce     0.7809   0.4691   0.0214
Ce1507     Ce     0.2191   0.0309   0.4786
Ce1508     Ce     0.9691   0.0214   0.2809
Ce1509     Ce     0.4691   0.7809   0.0214
Ce1510     Ce     0.2191   0.4786   0.0309
Ce1511     Ce     0.7809   0.0214   0.4691
Ce1512     Ce     0.2286   0.2809   0.2809
Ce1513     Ce     0.2809   0.2286   0.2809
Ce1514     Ce     0.4691   0.2286   0.4691
Ce1515     Ce     0.2809   0.2809   0.2286
Ce1516     Ce     0.9691   0.2286   0.9691
Ce1517     Ce     0.2286   0.4691   0.4691
Ce1518     Ce     0.2286   0.7809   0.7809
Ce1519     Ce     0.9691   0.2809   0.0214
Ce1520     Ce     0.4691   0.4691   0.2286
Ce1521     Ce     0.7809   0.2286   0.7809
Ce1522     Ce     0.7809   0.7809   0.2286
Ce1523     Ce     0.7191   0.5309   0.4786
Ce1524     Ce     0.7809   0.5214   0.9691
Ce1525     Ce     0.7191   0.7714   0.7191
Ce1526     Ce     0.7714   0.7191   0.7191
Ce1527     Ce     0.5309   0.7714   0.5309
Ce1528     Ce     0.7191   0.7191   0.7714
Ce1529     Ce     0.7191   0.4786   0.5309
Ce1530     Ce     0.5309   0.7191   0.4786
Ce1531     Ce     0.2809   0.5214   0.4691
Ce1532     Ce     0.9691   0.5214   0.7809
Ce1533     Ce     0.4691   0.9691   0.7286
Ce1534     Ce     0.2809   0.7809   0.7286
Ce1535     Ce     0.4691   0.2809   0.5214
Ce1536     Ce     0.5309   0.4786   0.7191
B1537     B     0.7606   0.4894   0.6662
B1538     B     0.2394   0.0106   0.8338
B1539     B     0.7606   0.9894   0.1662
B1540     B     0.7394   0.7394   0.4162
B1541     B     0.9894   0.1662   0.7606
B1542     B     0.4894   0.2606   0.1662
B1543     B     0.1662   0.7606   0.9894
B1544     B     0.1662   0.9894   0.7606
B1545     B     0.1662   0.4894   0.2606
B1546     B     0.1662   0.2606   0.4894
B1547     B     0.7394   0.5106   0.8338
B1548     B     0.2606   0.9894   0.6662
B1549     B     0.2394   0.4162   0.2394
B1550     B     0.2394   0.2394   0.4162
B1551     B     0.9894   0.7606   0.1662
B1552     B     0.7606   0.1662   0.9894
B1553     B     0.4894   0.1662   0.2606
B1554     B     0.7394   0.4162   0.7394
B1555     B     0.2606   0.1662   0.4894
B1556     B     0.2606   0.4894   0.1662
B1557     B     0.2394   0.9162   0.7394
B1558     B     0.2394   0.8338   0.0106
B1559     B     0.2394   0.7394   0.9162
B1560     B     0.9162   0.7394   0.2394
B1561     B     0.7394   0.9162   0.2394
B1562     B     0.9894   0.2606   0.6662
B1563     B     0.7394   0.2394   0.9162
B1564     B     0.0106   0.2394   0.8338
B1565     B     0.9894   0.9894   0.5838
B1566     B     0.9894   0.6662   0.2606
B1567     B     0.7606   0.5838   0.7606
B1568     B     0.7606   0.6662   0.4894
B1569     B     0.9894   0.5838   0.9894
B1570     B     0.6662   0.7606   0.4894
B1571     B     0.5838   0.4894   0.4894
B1572     B     0.6662   0.9894   0.2606
B1573     B     0.5838   0.9894   0.9894
B1574     B     0.5838   0.7606   0.7606
B1575     B     0.4894   0.6662   0.7606
B1576     B     0.0106   0.5106   0.9162
B1577     B     0.7606   0.7606   0.5838
B1578     B     0.0106   0.9162   0.5106
B1579     B     0.5106   0.8338   0.7394
B1580     B     0.6662   0.2606   0.9894
B1581     B     0.6662   0.4894   0.7606
B1582     B     0.2606   0.2606   0.5838
B1583     B     0.5838   0.2606   0.2606
B1584     B     0.9162   0.2394   0.7394
B1585     B     0.5106   0.0106   0.9162
B1586     B     0.9162   0.0106   0.5106
B1587     B     0.2606   0.5838   0.2606
B1588     B     0.2606   0.6662   0.9894
B1589     B     0.8338   0.0106   0.2394
B1590     B     0.4894   0.5838   0.4894
B1591     B     0.7394   0.8338   0.5106
B1592     B     0.5106   0.7394   0.8338
B1593     B     0.4894   0.7606   0.6662
B1594     B     0.9162   0.5106   0.0106
B1595     B     0.4894   0.4894   0.5838
B1596     B     0.8338   0.7394   0.5106
B1597     B     0.8338   0.5106   0.7394
B1598     B     0.5106   0.9162   0.0106
B1599     B     0.0106   0.8338   0.2394
B1600     B     0.8338   0.2394   0.0106
B1601     B     0.7606   0.2606   0.0838
B1602     B     0.0838   0.2606   0.7606
B1603     B     0.9894   0.4894   0.0838
B1604     B     0.9894   0.0838   0.4894
B1605     B     0.0838   0.7606   0.2606
B1606     B     0.4894   0.9894   0.0838
B1607     B     0.0838   0.4894   0.9894
B1608     B     0.0838   0.9894   0.4894
B1609     B     0.4894   0.0838   0.9894
B1610     B     0.4162   0.2394   0.2394
B1611     B     0.2394   0.3338   0.5106
B1612     B     0.2394   0.5106   0.3338
B1613     B     0.2606   0.0838   0.7606
B1614     B     0.7394   0.0106   0.3338
B1615     B     0.3338   0.2394   0.5106
B1616     B     0.3338   0.0106   0.7394
B1617     B     0.5106   0.3338   0.2394
B1618     B     0.0106   0.7394   0.3338
B1619     B     0.4162   0.5106   0.5106
B1620     B     0.4162   0.7394   0.7394
B1621     B     0.3338   0.5106   0.2394
B1622     B     0.5106   0.2394   0.3338
B1623     B     0.5106   0.4162   0.5106
B1624     B     0.7394   0.3338   0.0106
B1625     B     0.5106   0.5106   0.4162
B1626     B     0.2606   0.7606   0.0838
B1627     B     0.7606   0.0838   0.2606
B1628     B     0.0106   0.0106   0.4162
B1629     B     0.4162   0.0106   0.0106
B1630     B     0.0106   0.4162   0.0106
B1631     B     0.0106   0.3338   0.7394
B1632     B     0.3338   0.7394   0.0106
loop_
_geom_bond_atom_site_label_1
_geom_bond_atom_site_label_2
_geom_bond_distance
_geom_bond_site_symmetry_2
_ccdc_geom_bond_type
He1     H356    10.287   .     S
He1     H357    10.287   .     S
He1     B1565    10.302   .     S
He1     B1578    10.406   1_655     S
He1     B1586    10.406   1_565     S
He2     H369    10.287   .     S
He2     H368    10.287   .     S
He2     B1573    10.302   .     S
He2     B1585    10.406   1_565     S
He2     B1598    10.406   1_556     S
He3     H273    10.287   .     S
He3     H272    10.287   .     S
He3     B1569    10.302   .     S
He3     B1576    10.406   1_655     S
He3     B1594    10.406   1_556     S
He4     H428    10.287   .     S
He4     H429    10.287   .     S
He4     B1580    10.302   .     S
He4     B1624    10.406   1_556     S
He4     B1563    10.406   .     S
He5     H578    10.287   .     S
He5     H579    10.287   .     S
He5     B1621    10.302   .     S
He5     B1556    10.406   .     S
He5     B1587    10.406   .     S
He6     H518    10.287   .     S
He6     H519    10.287   .     S
He6     B1632    10.302   .     S
He6     B1626    10.406   .     S
He6     B1588    10.406   1_554     S
He7     H401    10.287   .     S
He7     H400    10.287   .     S
He7     B1631    10.302   .     S
He7     B1562    10.406   1_455     S
He7     B1602    10.406   .     S
He8     H329    10.287   .     S
He8     H328    10.287   .     S
He8     B1597    10.302   .     S
He8     B1567    10.406   .     S
He8     B1537    10.406   .     S
He9     H509    10.287   .     S
He9     H508    10.287   .     S
He9     B1596    10.302   .     S
He9     B1568    10.406   .     S
He9     B1577    10.406   .     S
He10     H441    10.287   .     S
He10     H440    10.287   .     S
He10     B1592    10.302   .     S
He10     B1574    10.406   .     S
He10     B1575    10.406   .     S
He11     H514    10.287   .     S
He11     H515    10.287   .     S
He11     B1591    10.302   .     S
He11     B1577    10.406   .     S
He11     B1570    10.406   .     S
He12     H436    10.287   .     S
He12     H437    10.287   .     S
He12     B1579    10.302   .     S
He12     B1593    10.406   .     S
He12     B1574    10.406   .     S
He13     H237    10.287   .     S
He13     H236    10.287   .     S
He13     B1577    10.302   .     S
He13     B1591    10.406   .     S
He13     B1596    10.406   .     S
He14     H248    10.287   .     S
He14     H249    10.287   .     S
He14     B1574    10.302   .     S
He14     B1592    10.406   .     S
He14     B1579    10.406   .     S
He15     H501    10.287   .     S
He15     H500    10.287   .     S
He15     B1548    10.302   .     S
He15     B1616    10.406   1_565     S
He15     B1557    10.406   .     S
He16     H260    10.287   .     S
He16     H261    10.287   .     S
He16     B1567    10.302   .     S
He16     B1597    10.406   .     S
He16     B1547    10.406   .     S
He17     H394    10.287   .     S
He17     H395    10.287   .     S
He17     B1541    10.302   .     S
He17     B1584    10.406   .     S
He17     B1564    10.406   1_655     S
He18     H478    10.287   .     S
He18     H479    10.287   .     S
He18     B1543    10.302   .     S
He18     B1559    10.406   .     S
He18     B1558    10.406   1_556     S
He19     H310    10.287   .     S
He19     H311    10.287   .     S
He19     B1623    10.302   .     S
He19     B1571    10.406   .     S
He19     B1595    10.406   .     S
He20     H443    10.287   .     S
He20     H442    10.287   .     S
He20     B1620    10.302   .     S
He20     B1575    10.406   .     S
He20     B1593    10.406   .     S
He21     H304    10.287   .     S
He21     H305    10.287   .     S
He21     B1619    10.302   .     S
He21     B1590    10.406   .     S
He21     B1595    10.406   .     S
He22     H417    10.287   .     S
He22     H416    10.287   .     S
He22     B1627    10.302   .     S
He22     B1614    10.406   .     S
He22     B1589    10.406   .     S
He23     H477    10.287   .     S
He23     H476    10.287   .     S
He23     B1626    10.302   .     S
He23     B1632    10.406   .     S
He23     B1558    10.406   .     S
He24     H309    10.287   .     S
He24     H308    10.287   .     S
He24     B1625    10.302   .     S
He24     B1571    10.406   .     S
He24     B1590    10.406   .     S
He25     H418    10.287   .     S
He25     H419    10.287   .     S
He25     B1539    10.302   .     S
He25     B1561    10.406   .     S
He25     B1589    10.406   1_565     S
He26     H333    10.287   .     S
He26     H332    10.287   .     S
He26     B1547    10.302   .     S
He26     B1581    10.406   .     S
He26     B1567    10.406   .     S
He27     H539    10.287   .     S
He27     H538    10.287   .     S
He27     B1589    10.302   .     S
He27     B1539    10.406   1_545     S
He27     B1627    10.406   .     S
He28     H413    10.287   .     S
He28     H412    10.287   .     S
He28     B1572    10.302   .     S
He28     B1561    10.406   .     S
He28     B1614    10.406   1_565     S
He29     H503    10.287   .     S
He29     H502    10.287   .     S
He29     B1544    10.302   .     S
He29     B1557    10.406   .     S
He29     B1538    10.406   1_565     S
He30     H430    10.287   .     S
He30     H431    10.287   .     S
He30     B1552    10.302   .     S
He30     B1600    10.406   1_556     S
He30     B1563    10.406   .     S
He31     H322    10.287   .     S
He31     H323    10.287   .     S
He31     B1551    10.302   .     S
He31     B1560    10.406   .     S
He31     B1599    10.406   1_655     S
He32     H207    10.287   .     S
He32     H206    10.287   .     S
He32     B1586    10.302   .     S
He32     B1604    10.406   .     S
He32     B1565    10.406   1_545     S
He33     H219    10.287   .     S
He33     H218    10.287   .     S
He33     B1598    10.302   .     S
He33     B1606    10.406   .     S
He33     B1573    10.406   1_554     S
He34     H334    10.287   .     S
He34     H335    10.287   .     S
He34     B1554    10.302   .     S
He34     B1537    10.406   .     S
He34     B1581    10.406   .     S
He35     H375    10.287   .     S
He35     H374    10.287   .     S
He35     B1594    10.302   .     S
He35     B1603    10.406   .     S
He35     B1569    10.406   1_554     S
He36     H562    10.287   .     S
He36     H563    10.287   .     S
He36     B1600    10.302   .     S
He36     B1601    10.406   .     S
He36     B1552    10.406   1_554     S
He37     H220    10.287   .     S
He37     H221    10.287   .     S
He37     B1585    10.302   .     S
He37     B1609    10.406   .     S
He37     B1573    10.406   1_545     S
He38     H347    10.287   .     S
He38     H346    10.287   .     S
He38     B1599    10.302   .     S
He38     B1605    10.406   .     S
He38     B1551    10.406   1_455     S
He39     H377    10.287   .     S
He39     H376    10.287   .     S
He39     B1576    10.302   .     S
He39     B1607    10.406   .     S
He39     B1569    10.406   1_455     S
He40     H208    10.287   .     S
He40     H209    10.287   .     S
He40     B1578    10.302   .     S
He40     B1608    10.406   .     S
He40     B1565    10.406   1_455     S
He41     H511    10.287   .     S
He41     H510    10.287   .     S
He41     B1540    10.302   .     S
He41     B1570    10.406   .     S
He41     B1568    10.406   .     S
He42     H527    10.287   .     S
He42     H526    10.287   .     S
He42     B1558    10.302   .     S
He42     B1543    10.406   1_554     S
He42     B1626    10.406   .     S
He43     H382    10.287   .     S
He43     H383    10.287   .     S
He43     B1630    10.302   .     S
He43     B1603    10.406   1_455     S
He43     B1607    10.406   1_554     S
He44     H227    10.287   .     S
He44     H226    10.287   .     S
He44     B1629    10.302   .     S
He44     B1606    10.406   1_545     S
He44     B1609    10.406   1_554     S
He45     H407    10.287   .     S
He45     H406    10.287   .     S
He45     B1564    10.302   .     S
He45     B1602    10.406   .     S
He45     B1541    10.406   1_455     S
He46     H215    10.287   .     S
He46     H214    10.287   .     S
He46     B1628    10.302   .     S
He46     B1604    10.406   1_455     S
He46     B1608    10.406   1_545     S
He47     H466    10.287   .     S
He47     H467    10.287   .     S
He47     B1546    10.302   .     S
He47     B1611    10.406   .     S
He47     B1550    10.406   .     S
He48     H533    10.287   .     S
He48     H532    10.287   .     S
He48     B1561    10.302   .     S
He48     B1572    10.406   .     S
He48     B1539    10.406   .     S
He49     H339    10.287   .     S
He49     H338    10.287   .     S
He49     B1560    10.302   .     S
He49     B1566    10.406   .     S
He49     B1551    10.406   .     S
He50     H556    10.287   .     S
He50     H557    10.287   .     S
He50     B1624    10.302   .     S
He50     B1601    10.406   .     S
He50     B1580    10.406   1_554     S
He51     H398    10.287   .     S
He51     H399    10.287   .     S
He51     B1584    10.302   .     S
He51     B1562    10.406   .     S
He51     B1541    10.406   .     S
He52     H551    10.287   .     S
He52     H550    10.287   .     S
He52     B1616    10.302   .     S
He52     B1613    10.406   .     S
He52     B1548    10.406   1_545     S
He53     H244    10.287   .     S
He53     H245    10.287   .     S
He53     B1575    10.302   .     S
He53     B1620    10.406   .     S
He53     B1592    10.406   .     S
He54     H239    10.287   .     S
He54     H238    10.287   .     S
He54     B1570    10.302   .     S
He54     B1540    10.406   .     S
He54     B1591    10.406   .     S
He55     H520    10.287   .     S
He55     H521    10.287   .     S
He55     B1559    10.302   .     S
He55     B1588    10.406   .     S
He55     B1543    10.406   .     S
He56     H340    10.287   .     S
He56     H341    10.287   .     S
He56     B1618    10.302   .     S
He56     B1605    10.406   .     S
He56     B1566    10.406   1_455     S
He57     H548    10.287   .     S
He57     H549    10.287   .     S
He57     B1557    10.302   .     S
He57     B1548    10.406   .     S
He57     B1544    10.406   .     S
He58     H530    10.287   .     S
He58     H531    10.287   .     S
He58     B1614    10.302   .     S
He58     B1572    10.406   1_545     S
He58     B1627    10.406   .     S
He59     H554    10.287   .     S
He59     H555    10.287   .     S
He59     B1563    10.302   .     S
He59     B1580    10.406   .     S
He59     B1552    10.406   .     S
He60     H491    10.287   .     S
He60     H490    10.287   .     S
He60     B1610    10.302   .     S
He60     B1542    10.406   .     S
He60     B1553    10.406   .     S
He61     H544    10.287   .     S
He61     H545    10.287   .     S
He61     B1538    10.302   .     S
He61     B1613    10.406   .     S
He61     B1544    10.406   1_545     S
He62     H483    10.287   .     S
He62     H482    10.287   .     S
He62     B1617    10.302   .     S
He62     B1583    10.406   .     S
He62     B1542    10.406   .     S
He63     H484    10.287   .     S
He63     H485    10.287   .     S
He63     B1622    10.302   .     S
He63     B1583    10.406   .     S
He63     B1553    10.406   .     S
He64     H580    10.287   .     S
He64     H581    10.287   .     S
He64     B1612    10.302   .     S
He64     B1545    10.406   .     S
He64     B1587    10.406   .     S
He65     H567    10.287   .     S
He65     H566    10.287   .     S
He65     B1611    10.302   .     S
He65     B1582    10.406   .     S
He65     B1546    10.406   .     S
He66     H569    10.287   .     S
He66     H568    10.287   .     S
He66     B1615    10.302   .     S
He66     B1582    10.406   .     S
He66     B1555    10.406   .     S
He67     H473    10.287   .     S
He67     H472    10.287   .     S
He67     B1588    10.302   .     S
He67     B1559    10.406   .     S
He67     B1632    10.406   1_556     S
He68     H389    10.287   .     S
He68     H388    10.287   .     S
He68     B1562    10.302   .     S
He68     B1631    10.406   1_655     S
He68     B1584    10.406   .     S
He69     H320    10.287   .     S
He69     H321    10.287   .     S
He69     B1566    10.302   .     S
He69     B1618    10.406   1_655     S
He69     B1560    10.406   .     S
He70     H365    10.287   .     S
He70     H364    10.287   .     S
He70     B1609    10.302   .     S
He70     B1629    10.406   1_556     S
He70     B1585    10.406   .     S
He71     H281    10.287   .     S
He71     H280    10.287   .     S
He71     B1595    10.302   .     S
He71     B1619    10.406   .     S
He71     B1623    10.406   .     S
He72     H352    10.287   .     S
He72     H353    10.287   .     S
He72     B1608    10.302   .     S
He72     B1628    10.406   1_565     S
He72     B1578    10.406   .     S
He73     H268    10.287   .     S
He73     H269    10.287   .     S
He73     B1607    10.302   .     S
He73     B1630    10.406   1_556     S
He73     B1576    10.406   .     S
He74     H284    10.287   .     S
He74     H285    10.287   .     S
He74     B1590    10.302   .     S
He74     B1619    10.406   .     S
He74     B1625    10.406   .     S
He75     H370    10.287   .     S
He75     H371    10.287   .     S
He75     B1606    10.302   .     S
He75     B1629    10.406   1_565     S
He75     B1598    10.406   .     S
He76     H275    10.287   .     S
He76     H274    10.287   .     S
He76     B1603    10.302   .     S
He76     B1630    10.406   1_655     S
He76     B1594    10.406   .     S
He77     H358    10.287   .     S
He77     H359    10.287   .     S
He77     B1604    10.302   .     S
He77     B1628    10.406   1_655     S
He77     B1586    10.406   .     S
He78     H287    10.287   .     S
He78     H286    10.287   .     S
He78     B1571    10.302   .     S
He78     B1623    10.406   .     S
He78     B1625    10.406   .     S
He79     H451    10.287   .     S
He79     H450    10.287   .     S
He79     B1587    10.302   .     S
He79     B1612    10.406   .     S
He79     B1621    10.406   .     S
He80     H263    10.287   .     S
He80     H262    10.287   .     S
He80     B1537    10.302   .     S
He80     B1554    10.406   .     S
He80     B1597    10.406   .     S
He81     H425    10.287   .     S
He81     H424    10.287   .     S
He81     B1601    10.302   .     S
He81     B1624    10.406   .     S
He81     B1600    10.406   .     S
He82     H251    10.287   .     S
He82     H250    10.287   .     S
He82     B1593    10.302   .     S
He82     B1620    10.406   .     S
He82     B1579    10.406   .     S
He83     H494    10.287   .     S
He83     H495    10.287   .     S
He83     B1613    10.302   .     S
He83     B1616    10.406   .     S
He83     B1538    10.406   .     S
He84     H574    10.287   .     S
He84     H575    10.287   .     S
He84     B1550    10.302   .     S
He84     B1555    10.406   .     S
He84     B1546    10.406   .     S
He85     H458    10.287   .     S
He85     H459    10.287   .     S
He85     B1582    10.302   .     S
He85     B1615    10.406   .     S
He85     B1611    10.406   .     S
He86     H256    10.287   .     S
He86     H257    10.287   .     S
He86     B1581    10.302   .     S
He86     B1554    10.406   .     S
He86     B1547    10.406   .     S
He87     H586    10.287   .     S
He87     H587    10.287   .     S
He87     B1549    10.302   .     S
He87     B1545    10.406   .     S
He87     B1556    10.406   .     S
He88     H232    10.287   .     S
He88     H233    10.287   .     S
He88     B1568    10.302   .     S
He88     B1540    10.406   .     S
He88     B1596    10.406   .     S
He89     H317    10.287   .     S
He89     H316    10.287   .     S
He89     B1605    10.302   .     S
He89     B1618    10.406   .     S
He89     B1599    10.406   .     S
He90     H392    10.287   .     S
He90     H393    10.287   .     S
He90     B1602    10.302   .     S
He90     B1631    10.406   .     S
He90     B1564    10.406   .     S
He91     H454    10.287   .     S
He91     H455    10.287   .     S
He91     B1545    10.302   .     S
He91     B1549    10.406   .     S
He91     B1612    10.406   .     S
He92     H295    10.287   .     S
He92     H294    10.287   .     S
He92     B1553    10.302   .     S
He92     B1622    10.406   .     S
He92     B1610    10.406   .     S
He93     H298    10.287   .     S
He93     H299    10.287   .     S
He93     B1542    10.302   .     S
He93     B1617    10.406   .     S
He93     B1610    10.406   .     S
He94     H446    10.287   .     S
He94     H447    10.287   .     S
He94     B1556    10.302   .     S
He94     B1621    10.406   .     S
He94     B1549    10.406   .     S
He95     H290    10.287   .     S
He95     H291    10.287   .     S
He95     B1583    10.302   .     S
He95     B1617    10.406   .     S
He95     B1622    10.406   .     S
He96     H462    10.287   .     S
He96     H463    10.287   .     S
He96     B1555    10.302   .     S
He96     B1550    10.406   .     S
He96     B1615    10.406   .     S
Ti97     Er749    10.092   .     S
Ti97     Er750    10.092   .     S
Ti97     Li754    10.139   .     S
Ti97     Li752    10.139   .     S
Ti97     Ce1486    10.115   .     S
Ti98     Er1174    10.092   .     S
Ti98     Er1173    10.092   .     S
Ti98     Li1183    10.139   .     S
Ti98     Li1184    10.139   .     S
Ti98     Ce1527    10.115   .     S
Ti99     Er1062    10.092   .     S
Ti99     Er1061    10.092   .     S
Ti99     Li1066    10.139   .     S
Ti99     Li1065    10.139   .     S
Ti99     Ce1484    10.115   .     S
Ti100     Er774    10.092   .     S
Ti100     Er773    10.092   .     S
Ti100     Li775    10.139   .     S
Ti100     Li776    10.139   .     S
Ti100     Ce1466    10.115   .     S
Ti101     Er1221    10.092   .     S
Ti101     Er1222    10.092   .     S
Ti101     Li1232    10.139   .     S
Ti101     Li1233    10.139   .     S
Ti101     Ce1461    10.115   .     S
Ti102     Er1011    10.092   .     S
Ti102     Er1012    10.092   .     S
Ti102     Li1015    10.139   .     S
Ti102     Li1016    10.139   .     S
Ti102     Ce1473    10.115   .     S
Ti103     Er723    10.092   .     S
Ti103     Er724    10.092   .     S
Ti103     Li728    10.139   .     S
Ti103     Li729    10.139   .     S
Ti103     Ce1475    10.115   .     S
Ti104     Er1206    10.092   .     S
Ti104     Er1205    10.092   .     S
Ti104     Li1210    10.139   .     S
Ti104     Li1207    10.139   .     S
Ti104     Ce1481    10.115   .     S
Ti105     Er938    10.092   .     S
Ti105     Er937    10.092   .     S
Ti105     Li946    10.139   .     S
Ti105     Li943    10.139   .     S
Ti105     Ce1469    10.115   .     S
Ti106     Er1249    10.092   .     S
Ti106     Er1250    10.092   .     S
Ti106     Li1256    10.139   .     S
Ti106     Li1255    10.139   .     S
Ti106     Ce1493    10.115   .     S
Ti107     Er1029    10.092   .     S
Ti107     Er1030    10.092   .     S
Ti107     Li1039    10.139   .     S
Ti107     Li1041    10.139   .     S
Ti107     Ce1460    10.115   .     S
Ti108     Er694    10.092   .     S
Ti108     Er693    10.092   .     S
Ti108     Li704    10.139   .     S
Ti108     Li703    10.139   .     S
Ti108     Ce1462    10.115   .     S
Ti109     Er1110    10.092   .     S
Ti109     Er1109    10.092   .     S
Ti109     Li1114    10.139   .     S
Ti109     Li1112    10.139   .     S
Ti109     Ce1528    10.115   .     S
Ti110     Er1157    10.092   .     S
Ti110     Er1158    10.092   .     S
Ti110     Li1160    10.139   .     S
Ti110     Li1161    10.139   .     S
Ti110     Ce1526    10.115   .     S
Ti111     Er1134    10.092   .     S
Ti111     Er1133    10.092   .     S
Ti111     Li1136    10.139   .     S
Ti111     Li1137    10.139   .     S
Ti111     Ce1525    10.115   .     S
Ti112     Er957    10.092   .     S
Ti112     Er958    10.092   .     S
Ti112     Li969    10.139   .     S
Ti112     Li968    10.139   .     S
Ti112     Ce1490    10.115   .     S
Ti113     Er1319    10.092   .     S
Ti113     Er1320    10.092   .     S
Ti113     Li1330    10.139   .     S
Ti113     Li1328    10.139   .     S
Ti113     Ce1531    10.115   .     S
Ti114     Er989    10.092   .     S
Ti114     Er990    10.092   .     S
Ti114     Li992    10.139   .     S
Ti114     Li991    10.139   .     S
Ti114     Ce1464    10.115   .     S
Ti115     Er935    10.092   .     S
Ti115     Er936    10.092   .     S
Ti115     Li945    10.139   .     S
Ti115     Li948    10.139   .     S
Ti115     Ce1491    10.115   .     S
Ti116     Er1297    10.092   .     S
Ti116     Er1298    10.092   .     S
Ti116     Li1306    10.139   .     S
Ti116     Li1308    10.139   .     S
Ti116     Ce1468    10.115   .     S
Ti117     Er1318    10.092   .     S
Ti117     Er1317    10.092   .     S
Ti117     Li1327    10.139   .     S
Ti117     Li1332    10.139   .     S
Ti117     Ce1476    10.115   .     S
Ti118     Er770    10.092   .     S
Ti118     Er769    10.092   .     S
Ti118     Li778    10.139   .     S
Ti118     Li780    10.139   .     S
Ti118     Ce1502    10.115   .     S
Ti119     Er1253    10.092   .     S
Ti119     Er1254    10.092   .     S
Ti119     Li1257    10.139   .     S
Ti119     Li1259    10.139   .     S
Ti119     Ce1530    10.115   .     S
Ti120     Er870    10.092   .     S
Ti120     Er869    10.092   .     S
Ti120     Li876    10.139   .     S
Ti120     Li874    10.139   .     S
Ti120     Ce1511    10.115   .     S
Ti121     Er1004    10.092   .     S
Ti121     Er1003    10.092   .     S
Ti121     Li1018    10.139   .     S
Ti121     Li1019    10.139   .     S
Ti121     Ce1529    10.115   .     S
Ti122     Er1245    10.092   .     S
Ti122     Er1246    10.092   .     S
Ti122     Li1258    10.139   .     S
Ti122     Li1260    10.139   .     S
Ti122     Ce1500    10.115   .     S
Ti123     Er838    10.092   .     S
Ti123     Er837    10.092   .     S
Ti123     Li849    10.139   .     S
Ti123     Li851    10.139   .     S
Ti123     Ce1505    10.115   .     S
Ti124     Er940    10.092   .     S
Ti124     Er939    10.092   .     S
Ti124     Li944    10.139   .     S
Ti124     Li947    10.139   .     S
Ti124     Ce1506    10.115   .     S
Ti125     Er979    10.092   .     S
Ti125     Er980    10.092   .     S
Ti125     Li995    10.139   .     S
Ti125     Li996    10.139   .     S
Ti125     Ce1523    10.115   .     S
Ti126     Er910    10.092   .     S
Ti126     Er909    10.092   .     S
Ti126     Li922    10.139   .     S
Ti126     Li924    10.139   .     S
Ti126     Ce1522    10.115   .     S
Ti127     Er985    10.092   .     S
Ti127     Er986    10.092   .     S
Ti127     Li993    10.139   .     S
Ti127     Li994    10.139   .     S
Ti127     Ce1497    10.115   .     S
Ti128     Er718    10.092   .     S
Ti128     Er717    10.092   .     S
Ti128     Li731    10.139   .     S
Ti128     Li732    10.139   .     S
Ti128     Ce1536    10.115   .     S
Ti129     Er1326    10.092   .     S
Ti129     Er1325    10.092   .     S
Ti129     Li1331    10.139   .     S
Ti129     Li1329    10.139   .     S
Ti129     Ce1534    10.115   .     S
Ti130     Er1201    10.092   .     S
Ti130     Er1202    10.092   .     S
Ti130     Li1209    10.139   .     S
Ti130     Li1208    10.139   .     S
Ti130     Ce1501    10.115   .     S
Ti131     Er722    10.092   .     S
Ti131     Er721    10.092   .     S
Ti131     Li730    10.139   .     S
Ti131     Li727    10.139   .     S
Ti131     Ce1503    10.115   .     S
Ti132     Er1296    10.092   .     S
Ti132     Er1295    10.092   .     S
Ti132     Li1304    10.139   .     S
Ti132     Li1305    10.139   .     S
Ti132     Ce1485    10.115   .     S
Ti133     Er862    10.092   .     S
Ti133     Er861    10.092   .     S
Ti133     Li873    10.139   .     S
Ti133     Li872    10.139   .     S
Ti133     Ce1489    10.115   .     S
Ti134     Er1350    10.092   .     S
Ti134     Er1349    10.092   .     S
Ti134     Li1354    10.139   .     S
Ti134     Li1356    10.139   .     S
Ti134     Ce1518    10.115   .     S
Ti135     Er1267    10.092   .     S
Ti135     Er1268    10.092   .     S
Ti135     Li1284    10.139   .     S
Ti135     Li1282    10.139   .     S
Ti135     Ce1517    10.115   .     S
Ti136     Er1009    10.092   .     S
Ti136     Er1010    10.092   .     S
Ti136     Li1017    10.139   .     S
Ti136     Li1020    10.139   .     S
Ti136     Ce1495    10.115   .     S
Ti137     Er840    10.092   .     S
Ti137     Er839    10.092   .     S
Ti137     Li847    10.139   .     S
Ti137     Li850    10.139   .     S
Ti137     Ce1535    10.115   .     S
Ti138     Er793    10.092   .     S
Ti138     Er794    10.092   .     S
Ti138     Li802    10.139   .     S
Ti138     Li804    10.139   .     S
Ti138     Ce1521    10.115   .     S
Ti139     Er844    10.092   .     S
Ti139     Er843    10.092   .     S
Ti139     Li848    10.139   .     S
Ti139     Li852    10.139   .     S
Ti139     Ce1488    10.115   .     S
Ti140     Er764    10.092   .     S
Ti140     Er763    10.092   .     S
Ti140     Li777    10.139   .     S
Ti140     Li779    10.139   .     S
Ti140     Ce1463    10.115   .     S
Ti141     Er859    10.092   .     S
Ti141     Er860    10.092   .     S
Ti141     Li875    10.139   .     S
Ti141     Li871    10.139   .     S
Ti141     Ce1483    10.115   .     S
Ti142     Er630    10.092   .     S
Ti142     Er629    10.092   .     S
Ti142     Li636    10.139   .     S
Ti142     Li635    10.139   .     S
Ti142     Ce1513    10.115   .     S
Ti143     Er891    10.092   1_556     S
Ti143     Er892    10.092   1_556     S
Ti143     Li900    10.139   .     S
Ti143     Li896    10.139   1_556     S
Ti143     Ce1454    10.115   .     S
Ti144     Er790    10.092   1_565     S
Ti144     Er789    10.092   1_565     S
Ti144     Li801    10.139   .     S
Ti144     Li799    10.139   1_565     S
Ti144     Ce1451    10.115   .     S
Ti145     Er914    10.092   1_556     S
Ti145     Er913    10.092   1_556     S
Ti145     Li921    10.139   .     S
Ti145     Li920    10.139   1_556     S
Ti145     Ce1449    10.115   .     S
Ti146     Er740    10.092   1_554     S
Ti146     Er739    10.092   1_554     S
Ti146     Li753    10.139   .     S
Ti146     Li755    10.139   1_554     S
Ti146     Ce1498    10.115   .     S
Ti147     Er1177    10.092   1_545     S
Ti147     Er1178    10.092   1_545     S
Ti147     Li1187    10.139   1_545     S
Ti147     Li1185    10.139   .     S
Ti147     Ce1480    10.115   .     S
Ti148     Er743    10.092   1_554     S
Ti148     Er744    10.092   1_554     S
Ti148     Li751    10.139   .     S
Ti148     Li756    10.139   1_554     S
Ti148     Ce1478    10.115   .     S
Ti149     Er1181    10.092   1_545     S
Ti149     Er1182    10.092   1_545     S
Ti149     Li1186    10.139   .     S
Ti149     Li1188    10.139   1_545     S
Ti149     Ce1465    10.115   .     S
Ti150     Er1052    10.092   1_455     S
Ti150     Er1051    10.092   1_455     S
Ti150     Li1064    10.139   .     S
Ti150     Li1067    10.139   1_455     S
Ti150     Ce1477    10.115   .     S
Ti151     Er918    10.092   1_556     S
Ti151     Er917    10.092   1_556     S
Ti151     Li923    10.139   .     S
Ti151     Li919    10.139   1_556     S
Ti151     Ce1524    10.115   .     S
Ti152     Er883    10.092   1_556     S
Ti152     Er884    10.092   1_556     S
Ti152     Li898    10.139   .     S
Ti152     Li895    10.139   1_556     S
Ti152     Ce1450    10.115   .     S
Ti153     Er623    10.092   1_565     S
Ti153     Er624    10.092   1_565     S
Ti153     Li633    10.139   1_565     S
Ti153     Li631    10.139   .     S
Ti153     Ce1446    10.115   .     S
Ti154     Er813    10.092   1_565     S
Ti154     Er814    10.092   1_565     S
Ti154     Li826    10.139   .     S
Ti154     Li823    10.139   1_565     S
Ti154     Ce1453    10.115   .     S
Ti155     Er701    10.092   1_554     S
Ti155     Er702    10.092   1_554     S
Ti155     Li705    10.139   .     S
Ti155     Li708    10.139   1_554     S
Ti155     Ce1445    10.115   .     S
Ti156     Er1340    10.092   1_655     S
Ti156     Er1339    10.092   1_655     S
Ti156     Li1355    10.139   .     S
Ti156     Li1352    10.139   1_655     S
Ti156     Ce1448    10.115   .     S
Ti157     Er1271    10.092   1_655     S
Ti157     Er1272    10.092   1_655     S
Ti157     Li1279    10.139   1_655     S
Ti157     Li1283    10.139   .     S
Ti157     Ce1452    10.115   .     S
Ti158     Er797    10.092   1_565     S
Ti158     Er798    10.092   1_565     S
Ti158     Li803    10.139   .     S
Ti158     Li800    10.139   1_565     S
Ti158     Ce1447    10.115   .     S
V159     V193    10.001   .     S
V159     V1372    10.001   .     S
V159     Er622    9.999   .     S
V159     Er630    9.999   .     S
V159     V168    10.006   .     S
V160     V203    10.001   .     S
V160     V1374    10.001   .     S
V160     Er1109    9.999   .     S
V160     Er1100    9.999   .     S
V160     V1373    10.006   .     S
V161     V197    10.001   .     S
V161     V196    10.001   .     S
V161     Er743    9.999   .     S
V161     Er739    9.999   .     S
V161     V164    10.006   .     S
V162     V183    10.001   .     S
V162     V185    10.001   .     S
V162     Er1221    9.999   .     S
V162     Er1228    9.999   .     S
V162     V190    10.006   .     S
V163     V200    10.001   .     S
V163     V199    10.001   .     S
V163     Er1181    9.999   .     S
V163     Er1177    9.999   .     S
V163     V183    10.006   .     S
V164     V1369    10.001   .     S
V164     V181    10.001   .     S
V164     Er701    9.999   .     S
V164     Er695    9.999   .     S
V165     V201    10.001   .     S
V165     V202    10.001   .     S
V165     Er1055    9.999   .     S
V165     Er1051    9.999   .     S
V165     V166    10.006   .     S
V166     V189    10.001   .     S
V166     V191    10.001   .     S
V166     Er1035    9.999   .     S
V166     Er1037    9.999   .     S
V167     V1373    10.001   .     S
V167     V205    10.001   .     S
V167     Er1133    9.999   .     S
V167     Er1124    9.999   .     S
V167     V1375    10.006   .     S
V168     V192    10.001   .     S
V168     V1363    10.001   .     S
V168     Er644    9.999   .     S
V168     Er654    9.999   .     S
V169     V204    10.001   .     S
V169     V1375    10.001   .     S
V169     Er1157    9.999   .     S
V169     Er1148    9.999   .     S
V169     V1374    10.006   .     S
V170     V1404    10.001   .     S
V170     V1361    10.001   .     S
V170     Er844    9.999   .     S
V170     Er838    9.999   .     S
V170     V174    10.006   .     S
V171     V179    10.001   .     S
V171     V1362    10.001   .     S
V171     Er1246    9.999   .     S
V171     Er1254    9.999   .     S
V171     V184    10.006   .     S
V172     V1397    10.001   .     S
V172     V1381    10.001   .     S
V172     Er918    9.999   .     S
V172     Er910    9.999   .     S
V172     V1358    10.006   .     S
V173     V1391    10.001   .     S
V173     V1386    10.001   .     S
V173     Er962    9.999   .     S
V173     Er958    9.999   .     S
V173     V1397    10.006   .     S
V174     V1400    10.001   .     S
V174     V1378    10.001   .     S
V174     Er798    9.999   .     S
V174     Er794    9.999   .     S
V175     V1399    10.001   .     S
V175     V1385    10.001   .     S
V175     Er860    9.999   .     S
V175     Er870    9.999   .     S
V175     V1390    10.006   .     S
V176     V1398    10.001   .     S
V176     V1379    10.001   .     S
V176     Er1340    9.999   .     S
V176     Er1350    9.999   .     S
V176     V177    10.006   .     S
V177     V1402    10.001   .     S
V177     V1376    10.001   .     S
V177     Er1326    9.999   .     S
V177     Er1318    9.999   .     S
V178     V1384    10.001   .     S
V178     V1366    10.001   .     S
V178     Er604    9.999   .     S
V178     Er600    9.999   .     S
V178     V1364    10.006   .     S
V179     V1362    10.001   .     S
V179     Er1249    9.999   .     S
V179     Er1245    9.999   .     S
V179     V185    10.006   .     S
V180     V1395    10.001   .     S
V180     V1370    10.001   .     S
V180     Er774    9.999   .     S
V180     Er769    9.999   .     S
V180     V181    10.006   .     S
V181     V1369    10.001   .     S
V181     Er694    9.999   .     S
V181     Er696    9.999   .     S
V182     V186    10.001   .     S
V182     V187    10.001   .     S
V182     Er1078    9.999   .     S
V182     Er1085    9.999   .     S
V182     V203    10.006   .     S
V183     V185    10.001   .     S
V183     Er1227    9.999   .     S
V183     Er1225    9.999   .     S
V184     V198    10.001   .     S
V184     V190    10.001   .     S
V184     Er1198    9.999   .     S
V184     Er1202    9.999   .     S
V185     Er1222    9.999   .     S
V185     Er1226    9.999   .     S
V186     V187    10.001   .     S
V186     Er1077    9.999   .     S
V186     Er1082    9.999   .     S
V186     V204    10.006   .     S
V187     Er1081    9.999   .     S
V187     Er1086    9.999   .     S
V187     V205    10.006   .     S
V188     V1393    10.001   .     S
V188     V1371    10.001   .     S
V188     Er1012    9.999   .     S
V188     Er1009    9.999   .     S
V188     V189    10.006   .     S
V189     V191    10.001   .     S
V189     Er1029    9.999   .     S
V189     Er1038    9.999   .     S
V190     V198    10.001   .     S
V190     Er1205    9.999   .     S
V190     Er1201    9.999   .     S
V191     Er1030    9.999   .     S
V191     Er1036    9.999   .     S
V191     V1368    10.006   .     S
V192     V1363    10.001   .     S
V192     Er646    9.999   .     S
V192     Er653    9.999   .     S
V192     V1367    10.006   .     S
V193     V1372    10.001   .     S
V193     Er624    9.999   .     S
V193     Er629    9.999   .     S
V193     V1384    10.006   .     S
V194     V1392    10.001   .     S
V194     V1368    10.001   .     S
V194     Er990    9.999   .     S
V194     Er979    9.999   .     S
V194     V201    10.006   .     S
V195     V1387    10.001   .     S
V195     V1360    10.001   .     S
V195     Er724    9.999   .     S
V195     Er717    9.999   .     S
V195     V196    10.006   .     S
V196     V197    10.001   .     S
V196     Er750    9.999   .     S
V196     Er740    9.999   .     S
V197     Er749    9.999   .     S
V197     Er744    9.999   .     S
V197     V1370    10.006   .     S
V198     Er1206    9.999   .     S
V198     Er1197    9.999   .     S
V198     V199    10.006   .     S
V199     V200    10.001   .     S
V199     Er1173    9.999   .     S
V199     Er1178    9.999   .     S
V200     Er1174    9.999   .     S
V200     Er1182    9.999   .     S
V200     V1362    10.006   .     S
V201     V202    10.001   .     S
V201     Er1061    9.999   .     S
V201     Er1052    9.999   .     S
V202     Er1062    9.999   .     S
V202     Er1056    9.999   .     S
V202     V1371    10.006   .     S
V203     V1374    10.001   .     S
V203     Er1099    9.999   .     S
V203     Er1103    9.999   .     S
V204     V1375    10.001   .     S
V204     Er1147    9.999   .     S
V204     Er1151    9.999   .     S
V205     V1373    10.001   .     S
V205     Er1123    9.999   .     S
V205     Er1127    9.999   .     S
H206     Be213    9.693   .     S
H206     S854    9.982   .     S
H206     H399    10.148   .     S
H206     H207    9.559   .     S
H207     Be211    9.693   .     S
H207     S786    9.982   .     S
H207     H398    10.148   .     S
H208     Be217    9.693   .     S
H208     S1310    9.982   .     S
H208     H549    10.148   .     S
H208     H209    9.559   .     S
H209     Be210    9.693   .     S
H209     S1337    9.982   .     S
H209     H548    10.148   .     S
Be210     Li1164    9.958   1_455     S
Be210     B1565    10.289   1_455     S
Be210     Ce1471    10.174   .     S
Be210     Be211    9.598   1_465     S
Be211     Li1139    9.958   1_545     S
Be211     B1565    10.289   1_545     S
Be211     Ce1474    10.174   .     S
Be211     Be210    9.598   1_645     S
Be212     H215    9.693   .     S
Be212     Li1043    9.958   1_455     S
Be212     B1604    10.289   1_455     S
Be212     Ce1444    10.174   .     S
Be212     Be213    9.598   1_455     S
Be213     Li1016    9.958   .     S
Be213     B1604    10.289   .     S
Be213     Ce1473    10.174   .     S
Be213     Be212    9.598   1_655     S
H214     Be216    9.693   .     S
H214     S618    9.982   .     S
H214     H575    10.148   .     S
H214     H215    9.559   .     S
H215     S613    9.982   .     S
H215     H574    10.148   .     S
Be216     Li1236    9.958   1_545     S
Be216     B1608    10.289   1_545     S
Be216     Ce1507    10.174   .     S
Be216     Be217    9.598   1_545     S
Be217     Li1207    9.958   .     S
Be217     B1608    10.289   .     S
Be217     Ce1481    10.174   .     S
Be217     Be216    9.598   1_565     S
H218     Be229    9.693   .     S
H218     S950    9.982   .     S
H218     H533    10.148   .     S
H218     H219    9.559   .     S
H219     Be223    9.693   .     S
H219     S905    9.982   .     S
H219     H532    10.148   .     S
H220     Be225    9.693   .     S
H220     S831    9.982   .     S
H220     H555    10.148   .     S
H220     H221    9.559   .     S
H221     Be222    9.693   .     S
H221     S785    9.982   .     S
H221     H554    10.148   .     S
Be222     Li1140    9.958   1_545     S
Be222     B1573    10.289   1_545     S
Be222     Ce1482    10.174   .     S
Be222     Be223    9.598   1_546     S
Be223     Li1116    9.958   1_554     S
Be223     B1573    10.289   1_554     S
Be223     Ce1496    10.174   .     S
Be223     Be222    9.598   1_564     S
Be224     H226    9.693   .     S
Be224     Li708    9.958   1_554     S
Be224     B1609    10.289   1_554     S
Be224     Ce1445    10.174   .     S
Be224     Be225    9.598   1_554     S
Be225     Li729    9.958   .     S
Be225     B1609    10.289   .     S
Be225     Ce1475    10.174   .     S
Be225     Be224    9.598   1_556     S
H226     S640    9.982   .     S
H226     H491    10.148   .     S
H226     H227    9.559   .     S
H227     Be228    9.693   .     S
H227     S637    9.982   .     S
H227     H490    10.148   .     S
Be228     Li1235    9.958   1_545     S
Be228     B1606    10.289   1_545     S
Be228     Ce1443    10.174   .     S
Be228     Be229    9.598   1_545     S
Be229     Li1256    9.958   .     S
Be229     B1606    10.289   .     S
Be229     Ce1493    10.174   .     S
Be229     Be228    9.598   1_565     S
Be230     H232    9.693   .     S
Be230     Li948    9.958   .     S
Be230     B1540    10.289   .     S
Be230     Ce1491    10.174   .     S
Be230     Be231    9.598   .     S
Be231     H238    9.693   .     S
Be231     Li969    9.958   .     S
Be231     B1540    10.289   .     S
Be231     Ce1490    10.174   .     S
H232     S997    9.982   .     S
H232     H321    10.148   .     S
H232     H233    9.559   .     S
H233     Be235    9.693   .     S
H233     S1050    9.982   .     S
H233     H320    10.148   .     S
Be234     H237    9.693   .     S
Be234     Li1355    9.958   .     S
Be234     B1596    10.289   .     S
Be234     Ce1448    10.174   .     S
Be234     Be235    9.598   .     S
Be235     Li1281    9.958   .     S
Be235     B1596    10.289   .     S
Be235     Ce1487    10.174   .     S
H236     Be241    9.693   .     S
H236     S1121    9.982   .     S
H236     H356    10.148   .     S
H236     H237    9.559   .     S
H237     S1144    9.982   .     S
H237     H357    10.148   .     S
H238     S1241    9.982   .     S
H238     H413    10.148   .     S
H238     H239    9.559   .     S
H239     Be240    9.693   .     S
H239     S1170    9.982   .     S
H239     H412    10.148   .     S
Be240     Li826    9.958   .     S
Be240     B1591    10.289   .     S
Be240     Ce1453    10.174   .     S
Be240     Be241    9.598   .     S
Be241     Li801    9.958   .     S
Be241     B1591    10.289   .     S
Be241     Ce1451    10.174   .     S
Be242     H244    9.693   .     S
Be242     Li1304    9.958   .     S
Be242     B1620    10.289   .     S
Be242     Ce1485    10.174   .     S
Be242     Be243    9.598   .     S
Be243     H250    9.693   .     S
Be243     Li1331    9.958   .     S
Be243     B1620    10.289   .     S
Be243     Ce1534    10.174   .     S
H244     S761    9.982   .     S
H244     H473    10.148   .     S
H244     H245    9.559   .     S
H245     Be246    9.693   .     S
H245     S737    9.982   .     S
H245     H472    10.148   .     S
Be246     Li898    9.958   .     S
Be246     B1592    10.289   .     S
Be246     Ce1450    10.174   .     S
Be246     Be247    9.598   .     S
Be247     H248    9.693   .     S
Be247     Li921    9.958   .     S
Be247     B1592    10.289   .     S
Be247     Ce1449    10.174   .     S
H248     S1098    9.982   .     S
H248     H368    10.148   .     S
H248     H249    9.559   .     S
H249     Be252    9.693   .     S
H249     S1120    9.982   .     S
H249     H369    10.148   .     S
H250     S1194    9.982   .     S
H250     H501    10.148   .     S
H250     H251    9.559   .     S
H251     Be253    9.693   .     S
H251     S1169    9.982   .     S
H251     H500    10.148   .     S
Be252     Li803    9.958   .     S
Be252     B1579    10.289   .     S
Be252     Ce1447    10.174   .     S
Be252     Be253    9.598   .     S
Be253     Li827    9.958   .     S
Be253     B1579    10.289   .     S
Be253     Ce1533    10.174   .     S
Be254     H256    9.693   .     S
Be254     Li852    9.958   .     S
Be254     B1554    10.289   .     S
Be254     Ce1488    10.174   .     S
Be254     Be255    9.598   .     S
Be255     H262    9.693   .     S
Be255     Li873    9.958   .     S
Be255     B1554    10.289   .     S
Be255     Ce1489    10.174   .     S
H256     S733    9.982   .     S
H256     H429    10.148   .     S
H256     H257    9.559   .     S
H257     Be259    9.693   .     S
H257     S738    9.982   .     S
H257     H428    10.148   .     S
Be258     H260    9.693   .     S
Be258     Li923    9.958   .     S
Be258     B1547    10.289   .     S
Be258     Ce1524    10.174   .     S
Be258     Be259    9.598   .     S
Be259     Li900    9.958   .     S
Be259     B1547    10.289   .     S
Be259     Ce1454    10.174   .     S
H260     S1117    9.982   .     S
H260     H272    10.148   .     S
H260     H261    9.559   .     S
H261     Be264    9.693   .     S
H261     S1165    9.982   .     S
H261     H273    10.148   .     S
H262     S1002    9.982   .     S
H262     H389    10.148   .     S
H262     H263    9.559   .     S
H263     Be265    9.693   .     S
H263     S1047    9.982   .     S
H263     H388    10.148   .     S
Be264     Li1353    9.958   .     S
Be264     B1597    10.289   .     S
Be264     Ce1532    10.174   .     S
Be264     Be265    9.598   .     S
Be265     Li1283    9.958   .     S
Be265     B1597    10.289   .     S
Be265     Ce1452    10.174   .     S
Be266     H274    9.693   .     S
Be266     Li611    9.958   1_655     S
Be266     B1630    10.289   1_655     S
Be266     Ce1519    10.174   .     S
Be266     Be267    9.598   1_654     S
Be267     H268    9.693   .     S
Be267     Li657    9.958   1_556     S
Be267     B1630    10.289   1_556     S
Be267     Ce1467    10.174   .     S
Be267     Be266    9.598   1_456     S
H268     S688    9.982   .     S
H268     H393    10.148   .     S
H268     H269    9.559   .     S
H269     Be271    9.693   .     S
H269     S760    9.982   .     S
H269     H392    10.148   .     S
Be270     H273    9.693   .     S
Be270     Li1351    9.958   1_655     S
Be270     B1576    10.289   1_655     S
Be270     Ce1532    10.174   .     S
Be270     Be271    9.598   1_655     S
Be271     Li1308    9.958   .     S
Be271     B1576    10.289   .     S
Be271     Ce1468    10.174   .     S
Be271     Be270    9.598   1_455     S
H272     Be276    9.693   .     S
H272     S1097    9.982   .     S
H272     H273    9.559   .     S
H273     S1146    9.982   .     S
H274     S1023    9.982   .     S
H274     H425    10.148   .     S
H274     H275    9.559   .     S
H275     Be277    9.693   .     S
H275     S974    9.982   .     S
H275     H424    10.148   .     S
Be276     Li919    9.958   1_556     S
Be276     B1594    10.289   1_556     S
Be276     Ce1524    10.174   .     S
Be276     Be277    9.598   1_556     S
Be277     Li947    9.958   .     S
Be277     B1594    10.289   .     S
Be277     Ce1506    10.174   .     S
Be277     Be276    9.598   1_554     S
Be278     H285    9.693   .     S
Be278     Li1328    9.958   .     S
Be278     B1619    10.289   .     S
Be278     Ce1531    10.174   .     S
Be278     Be279    9.598   .     S
Be279     H281    9.693   .     S
Be279     Li1307    9.958   .     S
Be279     B1619    10.289   .     S
Be279     Ce1479    10.174   .     S
H280     Be283    9.693   .     S
H280     S712    9.982   .     S
H280     H459    10.148   .     S
H280     H281    9.559   .     S
H281     S762    9.982   .     S
H281     H458    10.148   .     S
Be282     H287    9.693   .     S
Be282     Li875    9.958   .     S
Be282     B1623    10.289   .     S
Be282     Ce1483    10.174   .     S
Be282     Be283    9.598   .     S
Be283     Li850    9.958   .     S
Be283     B1623    10.289   .     S
Be283     Ce1535    10.174   .     S
H284     Be289    9.693   .     S
H284     S1242    9.982   .     S
H284     H450    10.148   .     S
H284     H285    9.559   .     S
H285     S1193    9.982   .     S
H285     H451    10.148   .     S
H286     Be288    9.693   .     S
H286     S975    9.982   .     S
H286     H291    10.148   .     S
H286     H287    9.559   .     S
H287     S1001    9.982   .     S
H287     H290    10.148   .     S
Be288     Li946    9.958   .     S
Be288     B1625    10.289   .     S
Be288     Ce1469    10.174   .     S
Be288     Be289    9.598   .     S
Be289     Li971    9.958   .     S
Be289     B1625    10.289   .     S
Be289     Ce1472    10.174   .     S
H290     Be296    9.693   .     S
H290     S999    9.982   .     S
H290     H291    9.559   .     S
H291     Be292    9.693   .     S
H291     S978    9.982   .     S
Be292     Li943    9.958   .     S
Be292     B1617    10.289   .     S
Be292     Ce1469    10.174   .     S
Be292     Be293    9.598   .     S
Be293     H299    9.693   .     S
Be293     Li899    9.958   .     S
Be293     B1617    10.289   .     S
Be293     Ce1520    10.174   .     S
H294     Be297    9.693   .     S
H294     S1189    9.982   .     S
H294     H462    10.148   .     S
H294     H295    9.559   .     S
H295     Be300    9.693   .     S
H295     S1214    9.982   .     S
H295     H463    10.148   .     S
Be296     Li871    9.958   .     S
Be296     B1622    10.289   .     S
Be296     Ce1483    10.174   .     S
Be296     Be297    9.598   .     S
Be297     Li828    9.958   .     S
Be297     B1622    10.289   .     S
Be297     Ce1514    10.174   .     S
H298     Be301    9.693   .     S
H298     S709    9.982   .     S
H298     H446    10.148   .     S
H298     H299    9.559   .     S
H299     S734    9.982   .     S
H299     H447    10.148   .     S
Be300     Li635    9.958   .     S
Be300     B1610    10.289   .     S
Be300     Ce1513    10.174   .     S
Be300     Be301    9.598   .     S
Be301     Li656    9.958   .     S
Be301     B1610    10.289   .     S
Be301     Ce1515    10.174   .     S
Be302     H305    9.693   .     S
Be302     Li779    9.958   .     S
Be302     B1595    10.289   .     S
Be302     Ce1463    10.174   .     S
Be302     Be303    9.598   .     S
Be303     H311    9.693   .     S
Be303     Li731    9.958   .     S
Be303     B1595    10.289   .     S
Be303     Ce1536    10.174   .     S
H304     Be307    9.693   .     S
H304     S1313    9.982   .     S
H304     H443    10.148   .     S
H304     H305    9.559   .     S
H305     S1309    9.982   .     S
H305     H442    10.148   .     S
Be306     H309    9.693   .     S
Be306     Li1259    9.958   .     S
Be306     B1590    10.289   .     S
Be306     Ce1530    10.174   .     S
Be306     Be307    9.598   .     S
Be307     Li1211    9.958   .     S
Be307     B1590    10.289   .     S
Be307     Ce1492    10.174   .     S
H308     Be312    9.693   .     S
H308     S949    9.982   .     S
H308     H511    10.148   .     S
H308     H309    9.559   .     S
H309     S973    9.982   .     S
H309     H510    10.148   .     S
H310     Be313    9.693   .     S
H310     S877    9.982   .     S
H310     H334    10.148   .     S
H310     H311    9.559   .     S
H311     S853    9.982   .     S
H311     H335    10.148   .     S
Be312     Li995    9.958   .     S
Be312     B1571    10.289   .     S
Be312     Ce1523    10.174   .     S
Be312     Be313    9.598   .     S
Be313     Li1018    9.958   .     S
Be313     B1571    10.289   .     S
Be313     Ce1529    10.174   .     S
Be314     H320    9.693   .     S
Be314     Li1280    9.958   1_655     S
Be314     B1618    10.289   1_655     S
Be314     Ce1487    10.174   .     S
Be314     Be315    9.598   1_655     S
Be315     H316    9.693   .     S
Be315     Li1327    9.958   .     S
Be315     B1618    10.289   .     S
Be315     Ce1476    10.174   .     S
Be315     Be314    9.598   1_455     S
H316     S1190    9.982   .     S
H316     H353    10.148   .     S
H316     H317    9.559   .     S
H317     Be318    9.693   .     S
H317     S1217    9.982   .     S
H317     H352    10.148   .     S
Be318     Li631    9.958   .     S
Be318     B1599    10.289   .     S
Be318     Ce1446    10.174   .     S
Be318     Be319    9.598   1_455     S
Be319     H322    9.693   .     S
Be319     Li683    9.958   1_655     S
Be319     B1599    10.289   1_655     S
Be319     Ce1442    10.174   .     S
Be319     Be318    9.598   1_655     S
H320     S1049    9.982   .     S
H320     H321    9.559   .     S
H321     Be324    9.693   .     S
H321     S977    9.982   .     S
H322     S1093    9.982   .     S
H322     H418    10.148   .     S
H322     H323    9.559   .     S
H323     Be325    9.693   .     S
H323     S1094    9.982   .     S
H323     H419    10.148   .     S
Be324     Li945    9.958   .     S
Be324     B1560    10.289   .     S
Be324     Ce1491    10.174   .     S
Be324     Be325    9.598   .     S
Be325     Li924    9.958   .     S
Be325     B1560    10.289   .     S
Be325     Ce1522    10.174   .     S
Be326     H329    9.693   .     S
Be326     Li1066    9.958   .     S
Be326     B1537    10.289   .     S
Be326     Ce1484    10.174   .     S
Be326     Be327    9.598   .     S
Be327     H334    9.693   .     S
Be327     Li1019    9.958   .     S
Be327     B1537    10.289   .     S
Be327     Ce1529    10.174   .     S
H328     Be331    9.693   .     S
H328     S1335    9.982   .     S
H328     H509    10.148   .     S
H328     H329    9.559   .     S
H329     S1263    9.982   .     S
H329     H508    10.148   .     S
Be330     H333    9.693   .     S
Be330     Li1114    9.958   .     S
Be330     B1567    10.289   .     S
Be330     Ce1528    10.174   .     S
Be330     Be331    9.598   .     S
Be331     Li1160    9.958   .     S
Be331     B1567    10.289   .     S
Be331     Ce1526    10.174   .     S
H332     Be337    9.693   .     S
H332     S878    9.982   .     S
H332     H440    10.148   .     S
H332     H333    9.559   .     S
H333     S925    9.982   .     S
H333     H441    10.148   .     S
H334     S856    9.982   .     S
H334     H335    9.559   .     S
H335     Be336    9.693   .     S
H335     S830    9.982   .     S
Be336     Li732    9.958   .     S
Be336     B1581    10.289   .     S
Be336     Ce1536    10.174   .     S
Be336     Be337    9.598   .     S
Be337     Li754    9.958   .     S
Be337     B1581    10.289   .     S
Be337     Ce1486    10.174   .     S
H338     Be345    9.693   .     S
H338     S904    9.982   .     S
H338     H375    10.148   .     S
H338     H339    9.559   .     S
H339     Be343    9.693   .     S
H339     S928    9.982   .     S
H339     H374    10.148   .     S
H340     Be348    9.693   .     S
H340     S1312    9.982   .     S
H340     H581    10.148   .     S
H340     H341    9.559   .     S
H341     Be342    9.693   .     S
H341     S1266    9.982   .     S
H341     H580    10.148   .     S
Be342     Li1067    9.958   1_455     S
Be342     B1566    10.289   1_455     S
Be342     Ce1477    10.174   .     S
Be342     Be343    9.598   1_455     S
Be343     Li992    9.958   .     S
Be343     B1566    10.289   .     S
Be343     Ce1464    10.174   .     S
Be343     Be342    9.598   1_655     S
Be344     H347    9.693   .     S
Be344     Li1087    9.958   1_455     S
Be344     B1551    10.289   1_455     S
Be344     Ce1456    10.174   .     S
Be344     Be345    9.598   1_455     S
Be345     Li1113    9.958   .     S
Be345     B1551    10.289   .     S
Be345     Ce1494    10.174   .     S
Be345     Be344    9.598   1_655     S
H346     Be349    9.693   .     S
H346     S614    9.982   .     S
H346     H526    10.148   .     S
H346     H347    9.559   .     S
H347     S665    9.982   .     S
H347     H527    10.148   .     S
Be348     Li1208    9.958   .     S
Be348     B1605    10.289   .     S
Be348     Ce1501    10.174   .     S
Be348     Be349    9.598   .     S
Be349     Li1232    9.958   .     S
Be349     B1605    10.289   .     S
Be349     Ce1461    10.174   .     S
Be350     H358    9.693   .     S
Be350     Li610    9.958   1_655     S
Be350     B1628    10.289   1_655     S
Be350     Ce1508    10.174   .     S
Be350     Be351    9.598   1_645     S
Be351     H352    9.693   .     S
Be351     Li633    9.958   1_565     S
Be351     B1628    10.289   1_565     S
Be351     Ce1446    10.174   .     S
Be351     Be350    9.598   1_465     S
H352     S1215    9.982   .     S
H352     H353    9.559   .     S
H353     Be355    9.693   .     S
H353     S1191    9.982   .     S
Be354     H357    9.693   .     S
Be354     Li1352    9.958   1_655     S
Be354     B1578    10.289   1_655     S
Be354     Ce1448    10.174   .     S
Be354     Be355    9.598   1_655     S
Be355     Li1332    9.958   .     S
Be355     B1578    10.289   .     S
Be355     Ce1476    10.174   .     S
Be355     Be354    9.598   1_455     S
H356     Be360    9.693   .     S
H356     S1141    9.982   .     S
H356     H357    9.559   .     S
H357     S1145    9.982   .     S
H358     S1024    9.982   .     S
H358     H417    10.148   .     S
H358     H359    9.559   .     S
H359     Be361    9.693   .     S
H359     S1000    9.982   .     S
H359     H416    10.148   .     S
Be360     Li799    9.958   1_565     S
Be360     B1586    10.289   1_565     S
Be360     Ce1451    10.174   .     S
Be360     Be361    9.598   1_565     S
Be361     Li874    9.958   .     S
Be361     B1586    10.289   .     S
Be361     Ce1511    10.174   .     S
Be361     Be360    9.598   1_545     S
Be362     H370    9.693   .     S
Be362     Li632    9.958   1_565     S
Be362     B1629    10.289   1_565     S
Be362     Ce1455    10.174   .     S
Be362     Be363    9.598   1_564     S
Be363     H364    9.693   .     S
Be363     Li658    9.958   1_556     S
Be363     B1629    10.289   1_556     S
Be363     Ce1457    10.174   .     S
Be363     Be362    9.598   1_546     S
H364     S686    9.982   .     S
H364     H495    10.148   .     S
H364     H365    9.559   .     S
H365     Be367    9.693   .     S
H365     S711    9.982   .     S
H365     H494    10.148   .     S
Be366     H369    9.693   .     S
Be366     Li800    9.958   1_565     S
Be366     B1585    10.289   1_565     S
Be366     Ce1447    10.174   .     S
Be366     Be367    9.598   1_565     S
Be367     Li851    9.958   .     S
Be367     B1585    10.289   .     S
Be367     Ce1505    10.174   .     S
Be367     Be366    9.598   1_545     S
H368     Be373    9.693   .     S
H368     S1096    9.982   .     S
H368     H369    9.559   .     S
H369     S1122    9.982   .     S
H370     S1216    9.982   .     S
H370     H477    10.148   .     S
H370     H371    9.559   .     S
H371     Be372    9.693   .     S
H371     S1240    9.982   .     S
H371     H476    10.148   .     S
Be372     Li972    9.958   .     S
Be372     B1598    10.289   .     S
Be372     Ce1509    10.174   .     S
Be372     Be373    9.598   1_554     S
Be373     Li920    9.958   1_556     S
Be373     B1598    10.289   1_556     S
Be373     Ce1449    10.174   .     S
Be373     Be372    9.598   1_556     S
H374     Be385    9.693   .     S
H374     S927    9.982   .     S
H374     H375    9.559   .     S
H375     Be378    9.693   .     S
H375     S906    9.982   .     S
H376     Be381    9.693   .     S
H376     S1286    9.982   .     S
H376     H521    10.148   .     S
H376     H377    9.559   .     S
H377     Be379    9.693   .     S
H377     S1338    9.982   .     S
H377     H520    10.148   .     S
Be378     Li1115    9.958   1_554     S
Be378     B1569    10.289   1_554     S
Be378     Ce1494    10.174   .     S
Be378     Be379    9.598   1_654     S
Be379     Li1163    9.958   1_455     S
Be379     B1569    10.289   1_455     S
Be379     Ce1499    10.174   .     S
Be379     Be378    9.598   1_456     S
Be380     H382    9.693   .     S
Be380     Li707    9.958   1_554     S
Be380     B1607    10.289   1_554     S
Be380     Ce1510    10.174   .     S
Be380     Be381    9.598   1_554     S
Be381     Li775    9.958   .     S
Be381     B1607    10.289   .     S
Be381     Ce1466    10.174   .     S
Be381     Be380    9.598   1_556     S
H382     S642    9.982   .     S
H382     H586    10.148   .     S
H382     H383    9.559   .     S
H383     Be384    9.693   .     S
H383     S594    9.982   .     S
H383     H587    10.148   .     S
Be384     Li1044    9.958   1_455     S
Be384     B1603    10.289   1_455     S
Be384     Ce1504    10.174   .     S
Be384     Be385    9.598   1_455     S
Be385     Li991    9.958   .     S
Be385     B1603    10.289   .     S
Be385     Ce1464    10.174   .     S
Be385     Be384    9.598   1_655     S
Be386     H388    9.693   .     S
Be386     Li1279    9.958   1_655     S
Be386     B1631    10.289   1_655     S
Be386     Ce1452    10.174   .     S
Be386     Be387    9.598   1_655     S
Be387     H392    9.693   .     S
Be387     Li1306    9.958   .     S
Be387     B1631    10.289   .     S
Be387     Ce1468    10.174   .     S
Be387     Be386    9.598   1_455     S
H388     S1048    9.982   .     S
H388     H389    9.559   .     S
H389     Be390    9.693   .     S
H389     S1021    9.982   .     S
Be390     Li872    9.958   .     S
Be390     B1584    10.289   .     S
Be390     Ce1489    10.174   .     S
Be390     Be391    9.598   .     S
Be391     H395    9.693   .     S
Be391     Li802    9.958   .     S
Be391     B1584    10.289   .     S
Be391     Ce1521    10.174   .     S
H392     S758    9.982   .     S
H392     H393    9.559   .     S
H393     Be397    9.693   .     S
H393     S687    9.982   .     S
H394     Be396    9.693   .     S
H394     S1071    9.982   .     S
H394     H430    10.148   .     S
H394     H395    9.559   .     S
H395     S1119    9.982   .     S
H395     H431    10.148   .     S
Be396     Li681    9.958   1_655     S
Be396     B1564    10.289   1_655     S
Be396     Ce1516    10.174   .     S
Be396     Be397    9.598   1_655     S
Be397     Li655    9.958   .     S
Be397     B1564    10.289   .     S
Be397     Ce1467    10.174   .     S
Be397     Be396    9.598   1_455     S
H398     Be409    9.693   .     S
H398     S782    9.982   .     S
H398     H399    9.559   .     S
H399     Be403    9.693   .     S
H399     S855    9.982   .     S
H400     Be404    9.693   .     S
H400     S1289    9.982   .     S
H400     H567    10.148   .     S
H400     H401    9.559   .     S
H401     Be402    9.693   .     S
H401     S1285    9.982   .     S
H401     H566    10.148   .     S
Be402     Li1068    9.958   1_455     S
Be402     B1562    10.289   1_455     S
Be402     Ce1470    10.174   .     S
Be402     Be403    9.598   1_455     S
Be403     Li1015    9.958   .     S
Be403     B1562    10.289   .     S
Be403     Ce1473    10.174   .     S
Be403     Be402    9.598   1_655     S
Be404     Li780    9.958   .     S
Be404     B1602    10.289   .     S
Be404     Ce1502    10.174   .     S
Be404     Be405    9.598   .     S
Be405     H406    9.693   .     S
Be405     Li703    9.958   .     S
Be405     B1602    10.289   .     S
Be405     Ce1462    10.174   .     S
H406     S639    9.982   .     S
H406     H545    10.148   .     S
H406     H407    9.559   .     S
H407     Be408    9.693   .     S
H407     S685    9.982   .     S
H407     H544    10.148   .     S
Be408     Li1092    9.958   1_455     S
Be408     B1541    10.289   1_455     S
Be408     Ce1459    10.174   .     S
Be408     Be409    9.598   1_455     S
Be409     Li1135    9.958   .     S
Be409     B1541    10.289   .     S
Be409     Ce1474    10.174   .     S
Be409     Be408    9.598   1_655     S
Be410     H412    9.693   .     S
Be410     Li823    9.958   1_565     S
Be410     B1614    10.289   1_565     S
Be410     Ce1453    10.174   .     S
Be410     Be411    9.598   1_565     S
Be411     H416    9.693   .     S
Be411     Li876    9.958   .     S
Be411     B1614    10.289   .     S
Be411     Ce1511    10.174   .     S
Be411     Be410    9.598   1_545     S
H412     S1168    9.982   .     S
H412     H413    9.559   .     S
H413     Be414    9.693   .     S
H413     S1261    9.982   .     S
Be414     Li968    9.958   .     S
Be414     B1561    10.289   .     S
Be414     Ce1490    10.174   .     S
Be414     Be415    9.598   .     S
Be415     H419    9.693   .     S
Be415     Li922    9.958   .     S
Be415     B1561    10.289   .     S
Be415     Ce1522    10.174   .     S
H416     S998    9.982   .     S
H416     H417    9.559   .     S
H417     Be421    9.693   .     S
H417     S1045    9.982   .     S
H418     Be420    9.693   .     S
H418     S1072    9.982   .     S
H418     H419    9.559   .     S
H419     S1095    9.982   .     S
Be420     Li679    9.958   1_565     S
Be420     B1589    10.289   1_565     S
Be420     Ce1442    10.174   .     S
Be420     Be421    9.598   1_565     S
Be421     Li609    9.958   .     S
Be421     B1589    10.289   .     S
Be421     Ce1508    10.174   .     S
Be421     Be420    9.598   1_545     S
Be422     H428    9.693   .     S
Be422     Li896    9.958   1_556     S
Be422     B1624    10.289   1_556     S
Be422     Ce1454    10.174   .     S
Be422     Be423    9.598   1_556     S
Be423     H424    9.693   .     S
Be423     Li944    9.958   .     S
Be423     B1624    10.289   .     S
Be423     Ce1506    10.174   .     S
Be423     Be422    9.598   1_554     S
H424     S976    9.982   .     S
H424     H425    9.559   .     S
H425     Be426    9.693   .     S
H425     S1025    9.982   .     S
Be426     Li607    9.958   .     S
Be426     B1600    10.289   .     S
Be426     Ce1519    10.174   .     S
Be426     Be427    9.598   1_554     S
Be427     H430    9.693   .     S
Be427     Li680    9.958   1_556     S
Be427     B1600    10.289   1_556     S
Be427     Ce1516    10.174   .     S
Be427     Be426    9.598   1_556     S
H428     S735    9.982   .     S
H428     H429    9.559   .     S
H429     Be432    9.693   .     S
H429     S714    9.982   .     S
H430     S1074    9.982   .     S
H430     H431    9.559   .     S
H431     Be433    9.693   .     S
H431     S1118    9.982   .     S
Be432     Li848    9.958   .     S
Be432     B1563    10.289   .     S
Be432     Ce1488    10.174   .     S
Be432     Be433    9.598   .     S
Be433     Li804    9.958   .     S
Be433     B1563    10.289   .     S
Be433     Ce1521    10.174   .     S
Be434     H437    9.693   .     S
Be434     Li1184    9.958   .     S
Be434     B1593    10.289   .     S
Be434     Ce1527    10.174   .     S
Be434     Be435    9.598   .     S
Be435     H443    9.693   .     S
Be435     Li1212    9.958   .     S
Be435     B1593    10.289   .     S
Be435     Ce1492    10.174   .     S
H436     Be439    9.693   .     S
H436     S805    9.982   .     S
H436     H515    10.148   .     S
H436     H437    9.559   .     S
H437     S807    9.982   .     S
H437     H514    10.148   .     S
Be438     H441    9.693   .     S
Be438     Li1112    9.958   .     S
Be438     B1574    10.289   .     S
Be438     Ce1528    10.174   .     S
Be438     Be439    9.598   .     S
Be439     Li1137    9.958   .     S
Be439     B1574    10.289   .     S
Be439     Ce1525    10.174   .     S
H440     Be445    9.693   .     S
H440     S879    9.982   .     S
H440     H441    9.559   .     S
H441     S903    9.982   .     S
H442     Be444    9.693   .     S
H442     S1288    9.982   .     S
H442     H443    9.559   .     S
H443     S1333    9.982   .     S
Be444     Li777    9.958   .     S
Be444     B1575    10.289   .     S
Be444     Ce1463    10.174   .     S
Be444     Be445    9.598   .     S
Be445     Li752    9.958   .     S
Be445     B1575    10.289   .     S
Be445     Ce1486    10.174   .     S
H446     Be457    9.693   .     S
H446     S689    9.982   .     S
H446     H447    9.559   .     S
H447     Be448    9.693   .     S
H447     S757    9.982   .     S
Be448     Li897    9.958   .     S
Be448     B1621    10.289   .     S
Be448     Ce1520    10.174   .     S
Be448     Be449    9.598   .     S
Be449     H450    9.693   .     S
Be449     Li967    9.958   .     S
Be449     B1621    10.289   .     S
Be449     Ce1472    10.174   .     S
H450     S1239    9.982   .     S
H450     H451    9.559   .     S
H451     Be452    9.693   .     S
H451     S1192    9.982   .     S
Be452     Li1330    9.958   .     S
Be452     B1612    10.289   .     S
Be452     Ce1531    10.174   .     S
Be452     Be453    9.598   .     S
Be453     H455    9.693   .     S
Be453     Li1282    9.958   .     S
Be453     B1612    10.289   .     S
Be453     Ce1517    10.174   .     S
H454     Be456    9.693   .     S
H454     S1026    9.982   .     S
H454     H467    10.148   .     S
H454     H455    9.559   .     S
H455     S1046    9.982   .     S
H455     H466    10.148   .     S
Be456     Li612    9.958   .     S
Be456     B1549    10.289   .     S
Be456     Ce1512    10.174   .     S
Be456     Be457    9.598   .     S
Be457     Li659    9.958   .     S
Be457     B1549    10.289   .     S
Be457     Ce1515    10.174   .     S
H458     Be468    9.693   .     S
H458     S759    9.982   .     S
H458     H459    9.559   .     S
H459     Be460    9.693   .     S
H459     S710    9.982   .     S
Be460     Li847    9.958   .     S
Be460     B1615    10.289   .     S
Be460     Ce1535    10.174   .     S
Be460     Be461    9.598   .     S
Be461     H462    9.693   .     S
Be461     Li825    9.958   .     S
Be461     B1615    10.289   .     S
Be461     Ce1514    10.174   .     S
H462     S1167    9.982   .     S
H462     H463    9.559   .     S
H463     Be465    9.693   .     S
H463     S1218    9.982   .     S
Be464     H467    9.693   .     S
Be464     Li608    9.958   .     S
Be464     B1550    10.289   .     S
Be464     Ce1512    10.174   .     S
Be464     Be465    9.598   .     S
Be465     Li636    9.958   .     S
Be465     B1550    10.289   .     S
Be465     Ce1513    10.174   .     S
H466     Be469    9.693   .     S
H466     S1069    9.982   .     S
H466     H467    9.559   .     S
H467     S1022    9.982   .     S
Be468     Li1303    9.958   .     S
Be468     B1611    10.289   .     S
Be468     Ce1479    10.174   .     S
Be468     Be469    9.598   .     S
Be469     Li1284    9.958   .     S
Be469     B1611    10.289   .     S
Be469     Ce1517    10.174   .     S
Be470     H476    9.693   .     S
Be470     Li970    9.958   .     S
Be470     B1632    10.289   .     S
Be470     Ce1509    10.174   .     S
Be470     Be471    9.598   1_554     S
Be471     H472    9.693   .     S
Be471     Li895    9.958   1_556     S
Be471     B1632    10.289   1_556     S
Be471     Ce1450    10.174   .     S
Be471     Be470    9.598   1_556     S
H472     S736    9.982   .     S
H472     H473    9.559   .     S
H473     Be474    9.693   .     S
H473     S781    9.982   .     S
Be474     Li1305    9.958   .     S
Be474     B1559    10.289   .     S
Be474     Ce1485    10.174   .     S
Be474     Be475    9.598   .     S
Be475     H479    9.693   .     S
Be475     Li1354    9.958   .     S
Be475     B1559    10.289   .     S
Be475     Ce1518    10.174   .     S
H476     S1238    9.982   .     S
H476     H477    9.559   .     S
H477     Be480    9.693   .     S
H477     S1237    9.982   .     S
H478     Be481    9.693   .     S
H478     S1070    9.982   .     S
H478     H502    10.148   .     S
H478     H479    9.559   .     S
H479     S1143    9.982   .     S
H479     H503    10.148   .     S
Be480     Li634    9.958   .     S
Be480     B1558    10.289   .     S
Be480     Ce1455    10.174   .     S
Be480     Be481    9.598   1_554     S
Be481     Li682    9.958   1_556     S
Be481     B1558    10.289   1_556     S
Be481     Ce1441    10.174   .     S
Be481     Be480    9.598   1_556     S
H482     Be488    9.693   .     S
H482     S880    9.982   .     S
H482     H557    10.148   .     S
H482     H483    9.559   .     S
H483     Be487    9.693   .     S
H483     S930    9.982   .     S
H483     H556    10.148   .     S
H484     Be492    9.693   .     S
H484     S809    9.982   .     S
H484     H531    10.148   .     S
H484     H485    9.559   .     S
H485     Be486    9.693   .     S
H485     S858    9.982   .     S
H485     H530    10.148   .     S
Be486     Li1017    9.958   .     S
Be486     B1583    10.289   .     S
Be486     Ce1495    10.174   .     S
Be486     Be487    9.598   .     S
Be487     Li994    9.958   .     S
Be487     B1583    10.289   .     S
Be487     Ce1497    10.174   .     S
Be488     Li753    9.958   .     S
Be488     B1542    10.289   .     S
Be488     Ce1498    10.174   .     S
Be488     Be489    9.598   .     S
Be489     H491    9.693   .     S
Be489     Li705    9.958   .     S
Be489     B1542    10.289   .     S
Be489     Ce1445    10.174   .     S
H490     Be493    9.693   .     S
H490     S617    9.982   .     S
H490     H491    9.559   .     S
H491     S661    9.982   .     S
Be492     Li1186    9.958   .     S
Be492     B1553    10.289   .     S
Be492     Ce1465    10.174   .     S
Be492     Be493    9.598   .     S
Be493     Li1231    9.958   .     S
Be493     B1553    10.289   .     S
Be493     Ce1443    10.174   .     S
H494     Be499    9.693   .     S
H494     S713    9.982   .     S
H494     H495    9.559   .     S
H495     Be496    9.693   .     S
H495     S690    9.982   .     S
Be496     Li660    9.958   .     S
Be496     B1538    10.289   .     S
Be496     Ce1457    10.174   .     S
Be496     Be497    9.598   1_545     S
Be497     H502    9.693   .     S
Be497     Li684    9.958   1_565     S
Be497     B1538    10.289   1_565     S
Be497     Ce1441    10.174   .     S
Be497     Be496    9.598   1_565     S
Be498     H500    9.693   .     S
Be498     Li824    9.958   1_565     S
Be498     B1616    10.289   1_565     S
Be498     Ce1533    10.174   .     S
Be498     Be499    9.598   1_565     S
Be499     Li849    9.958   .     S
Be499     B1616    10.289   .     S
Be499     Ce1505    10.174   .     S
Be499     Be498    9.598   1_545     S
H500     S1166    9.982   .     S
H500     H501    9.559   .     S
H501     Be504    9.693   .     S
H501     S1213    9.982   .     S
H502     S1073    9.982   .     S
H502     H503    9.559   .     S
H503     Be505    9.693   .     S
H503     S1142    9.982   .     S
Be504     Li1329    9.958   .     S
Be504     B1557    10.289   .     S
Be504     Ce1534    10.174   .     S
Be504     Be505    9.598   .     S
Be505     Li1356    9.958   .     S
Be505     B1557    10.289   .     S
Be505     Ce1518    10.174   .     S
Be506     H509    9.693   .     S
Be506     Li1161    9.958   .     S
Be506     B1577    10.289   .     S
Be506     Ce1526    10.174   .     S
Be506     Be507    9.598   .     S
Be507     H515    9.693   .     S
Be507     Li1136    9.958   .     S
Be507     B1577    10.289   .     S
Be507     Ce1525    10.174   .     S
H508     Be512    9.693   .     S
H508     S1262    9.982   .     S
H508     H509    9.559   .     S
H509     S1357    9.982   .     S
H510     Be517    9.693   .     S
H510     S952    9.982   .     S
H510     H511    9.559   .     S
H511     Be513    9.693   .     S
H511     S926    9.982   .     S
Be512     Li1065    9.958   .     S
Be512     B1568    10.289   .     S
Be512     Ce1484    10.174   .     S
Be512     Be513    9.598   .     S
Be513     Li996    9.958   .     S
Be513     B1568    10.289   .     S
Be513     Ce1523    10.174   .     S
H514     Be516    9.693   .     S
H514     S806    9.982   .     S
H514     H515    9.559   .     S
H515     S783    9.982   .     S
Be516     Li1183    9.958   .     S
Be516     B1570    10.289   .     S
Be516     Ce1527    10.174   .     S
Be516     Be517    9.598   .     S
Be517     Li1257    9.958   .     S
Be517     B1570    10.289   .     S
Be517     Ce1530    10.174   .     S
H518     Be524    9.693   .     S
H518     S953    9.982   .     S
H518     H579    10.148   .     S
H518     H519    9.559   .     S
H519     Be522    9.693   .     S
H519     S901    9.982   .     S
H519     H578    10.148   .     S
H520     Be529    9.693   .     S
H520     S1334    9.982   .     S
H520     H521    9.559   .     S
H521     Be523    9.693   .     S
H521     S1287    9.982   .     S
Be522     Li756    9.958   1_554     S
Be522     B1588    10.289   1_554     S
Be522     Ce1478    10.174   .     S
Be522     Be523    9.598   1_554     S
Be523     Li776    9.958   .     S
Be523     B1588    10.289   .     S
Be523     Ce1466    10.174   .     S
Be523     Be522    9.598   1_556     S
Be524     Li1260    9.958   .     S
Be524     B1626    10.289   .     S
Be524     Ce1500    10.174   .     S
Be524     Be525    9.598   .     S
Be525     H526    9.693   .     S
Be525     Li1233    9.958   .     S
Be525     B1626    10.289   .     S
Be525     Ce1461    10.174   .     S
H526     S615    9.982   .     S
H526     H527    9.559   .     S
H527     Be528    9.693   .     S
H527     S666    9.982   .     S
Be528     Li1090    9.958   1_554     S
Be528     B1543    10.289   1_554     S
Be528     Ce1456    10.174   .     S
Be528     Be529    9.598   1_554     S
Be529     Li1159    9.958   .     S
Be529     B1543    10.289   .     S
Be529     Ce1499    10.174   .     S
Be529     Be528    9.598   1_556     S
H530     Be536    9.693   .     S
H530     S857    9.982   .     S
H530     H531    9.559   .     S
H531     Be534    9.693   .     S
H531     S810    9.982   .     S
H532     Be541    9.693   .     S
H532     S902    9.982   .     S
H532     H533    9.559   .     S
H533     Be535    9.693   .     S
H533     S951    9.982   .     S
Be534     Li1188    9.958   1_545     S
Be534     B1572    10.289   1_545     S
Be534     Ce1465    10.174   .     S
Be534     Be535    9.598   1_545     S
Be535     Li1255    9.958   .     S
Be535     B1572    10.289   .     S
Be535     Ce1493    10.174   .     S
Be535     Be534    9.598   1_565     S
Be536     Li1020    9.958   .     S
Be536     B1627    10.289   .     S
Be536     Ce1495    10.174   .     S
Be536     Be537    9.598   .     S
Be537     H538    9.693   .     S
Be537     Li1041    9.958   .     S
Be537     B1627    10.289   .     S
Be537     Ce1460    10.174   .     S
H538     S591    9.982   .     S
H538     H562    10.148   .     S
H538     H539    9.559   .     S
H539     Be540    9.693   .     S
H539     S664    9.982   .     S
H539     H563    10.148   .     S
Be540     Li1091    9.958   1_545     S
Be540     B1539    10.289   1_545     S
Be540     Ce1458    10.174   .     S
Be540     Be541    9.598   1_545     S
Be541     Li1111    9.958   .     S
Be541     B1539    10.289   .     S
Be541     Ce1496    10.174   .     S
Be541     Be540    9.598   1_565     S
Be542     H544    9.693   .     S
Be542     Li1089    9.958   1_545     S
Be542     B1544    10.289   1_545     S
Be542     Ce1459    10.174   .     S
Be542     Be543    9.598   1_545     S
Be543     H548    9.693   .     S
Be543     Li1162    9.958   .     S
Be543     B1544    10.289   .     S
Be543     Ce1471    10.174   .     S
Be543     Be542    9.598   1_565     S
H544     S662    9.982   .     S
H544     H545    9.559   .     S
H545     Be547    9.693   .     S
H545     S638    9.982   .     S
Be546     H550    9.693   .     S
Be546     Li730    9.958   .     S
Be546     B1613    10.289   .     S
Be546     Ce1503    10.174   .     S
Be546     Be547    9.598   .     S
Be547     Li704    9.958   .     S
Be547     B1613    10.289   .     S
Be547     Ce1462    10.174   .     S
H548     S1336    9.982   .     S
H548     H549    9.559   .     S
H549     Be553    9.693   .     S
H549     S1311    9.982   .     S
H550     S833    9.982   .     S
H550     H569    10.148   .     S
H550     H551    9.559   .     S
H551     Be552    9.693   .     S
H551     S829    9.982   .     S
H551     H568    10.148   .     S
Be552     Li1187    9.958   1_545     S
Be552     B1548    10.289   1_545     S
Be552     Ce1480    10.174   .     S
Be552     Be553    9.598   1_545     S
Be553     Li1210    9.958   .     S
Be553     B1548    10.289   .     S
Be553     Ce1481    10.174   .     S
Be553     Be552    9.598   1_565     S
H554     Be565    9.693   .     S
H554     S784    9.982   .     S
H554     H555    9.559   .     S
H555     Be559    9.693   .     S
H555     S832    9.982   .     S
H556     Be560    9.693   .     S
H556     S929    9.982   .     S
H556     H557    9.559   .     S
H557     Be558    9.693   .     S
H557     S882    9.982   .     S
Be558     Li755    9.958   1_554     S
Be558     B1580    10.289   1_554     S
Be558     Ce1498    10.174   .     S
Be558     Be559    9.598   1_554     S
Be559     Li728    9.958   .     S
Be559     B1580    10.289   .     S
Be559     Ce1475    10.174   .     S
Be559     Be558    9.598   1_556     S
Be560     Li993    9.958   .     S
Be560     B1601    10.289   .     S
Be560     Ce1497    10.174   .     S
Be560     Be561    9.598   .     S
Be561     H562    9.693   .     S
Be561     Li1039    9.958   .     S
Be561     B1601    10.289   .     S
Be561     Ce1460    10.174   .     S
H562     S590    9.982   .     S
H562     H563    9.559   .     S
H563     Be564    9.693   .     S
H563     S663    9.982   .     S
Be564     Li1088    9.958   1_554     S
Be564     B1552    10.289   1_554     S
Be564     Ce1458    10.174   .     S
Be564     Be565    9.598   1_554     S
Be565     Li1138    9.958   .     S
Be565     B1552    10.289   .     S
Be565     Ce1482    10.174   .     S
Be565     Be564    9.598   1_556     S
H566     Be572    9.693   .     S
H566     S1265    9.982   .     S
H566     H567    9.559   .     S
H567     Be571    9.693   .     S
H567     S1290    9.982   .     S
H568     Be577    9.693   .     S
H568     S808    9.982   .     S
H568     H569    9.559   .     S
H569     Be570    9.693   .     S
H569     S834    9.982   .     S
Be570     Li727    9.958   .     S
Be570     B1582    10.289   .     S
Be570     Ce1503    10.174   .     S
Be570     Be571    9.598   .     S
Be571     Li778    9.958   .     S
Be571     B1582    10.289   .     S
Be571     Ce1502    10.174   .     S
Be572     Li1063    9.958   .     S
Be572     B1546    10.289   .     S
Be572     Ce1470    10.174   .     S
Be572     Be573    9.598   .     S
Be573     H574    9.693   .     S
Be573     Li1040    9.958   .     S
Be573     B1546    10.289   .     S
Be573     Ce1444    10.174   .     S
H574     S593    9.982   .     S
H574     H575    9.559   .     S
H575     Be576    9.693   .     S
H575     S616    9.982   .     S
Be576     Li1234    9.958   .     S
Be576     B1555    10.289   .     S
Be576     Ce1507    10.174   .     S
Be576     Be577    9.598   .     S
Be577     Li1185    9.958   .     S
Be577     B1555    10.289   .     S
Be577     Ce1480    10.174   .     S
H578     Be584    9.693   .     S
H578     S881    9.982   .     S
H578     H579    9.559   .     S
H579     Be582    9.693   .     S
H579     S954    9.982   .     S
H580     Be589    9.693   .     S
H580     S1264    9.982   .     S
H580     H581    9.559   .     S
H581     Be583    9.693   .     S
H581     S1314    9.982   .     S
Be582     Li1258    9.958   .     S
Be582     B1587    10.289   .     S
Be582     Ce1500    10.174   .     S
Be582     Be583    9.598   .     S
Be583     Li1209    9.958   .     S
Be583     B1587    10.289   .     S
Be583     Ce1501    10.174   .     S
Be584     Li751    9.958   .     S
Be584     B1556    10.289   .     S
Be584     Ce1478    10.174   .     S
Be584     Be585    9.598   .     S
Be585     H586    9.693   .     S
Be585     Li706    9.958   .     S
Be585     B1556    10.289   .     S
Be585     Ce1510    10.174   .     S
H586     S641    9.982   .     S
H586     H587    9.559   .     S
H587     Be588    9.693   .     S
H587     S592    9.982   .     S
Be588     Li1042    9.958   .     S
Be588     B1545    10.289   .     S
Be588     Ce1504    10.174   .     S
Be588     Be589    9.598   .     S
Be589     Li1064    9.958   .     S
Be589     B1545    10.289   .     S
Be589     Ce1477    10.174   .     S
S590     Li607    10.191   .     S
S590     S591    10.144   .     S
S590     C596    9.817   .     S
S590     Li1039    9.885   .     S
S591     Li609    10.191   .     S
S591     C595    9.817   .     S
S591     Li1041    9.885   .     S
S592     Li612    10.191   .     S
S592     S594    10.144   .     S
S592     C606    9.817   .     S
S592     Li1042    9.885   .     S
S593     Li608    10.191   .     S
S593     S613    10.144   .     S
S593     C601    9.817   .     S
S593     Li1040    9.885   .     S
S594     Li611    10.191   .     S
S594     C605    9.817   .     S
S594     Li1044    9.885   1_455     S
C595     C668    9.82   .     S
C595     Er600    9.751   1_655     S
C595     C596    9.728   .     S
C595     Li609    9.778   .     S
C596     C667    9.82   .     S
C596     Er604    9.751   1_655     S
C596     Li607    9.778   .     S
Er597     Er598    9.679   .     S
Er597     V1366    9.999   .     S
Er597     Ti1417    10.092   .     S
Er597     C606    9.751   .     S
Er597     Er643    9.886   .     S
Er598     V1384    9.999   .     S
Er598     Ti1417    10.092   .     S
Er598     C601    9.751   .     S
Er598     Er629    9.886   .     S
Er599     Er600    9.679   .     S
Er599     V1384    9.999   .     S
Er599     Ti1433    10.092   1_455     S
Er599     C602    9.751   .     S
Er599     Er624    9.886   .     S
Er600     Ti1433    10.092   1_455     S
Er600     C595    9.751   1_455     S
Er600     Er677    9.886   .     S
C601     C628    9.82   .     S
C601     C602    9.728   .     S
C601     Li608    9.778   .     S
C602     S613    9.817   .     S
C602     C627    9.82   .     S
C602     Li610    9.778   .     S
Er603     Er604    9.679   .     S
Er603     V1366    9.999   .     S
Er603     Ti1410    10.092   1_455     S
Er603     C605    9.751   .     S
Er603     Er645    9.886   .     S
Er604     Ti1410    10.092   1_455     S
Er604     C596    9.751   1_455     S
Er604     Er670    9.886   .     S
C605     C648    9.82   .     S
C605     C606    9.728   .     S
C605     Li611    9.778   .     S
C606     C647    9.82   .     S
C606     Li612    9.778   .     S
Li607     Ti1410    10.139   .     S
Li607     S1025    9.885   .     S
Li608     Ti1417    10.139   .     S
Li608     S1022    9.885   .     S
Li609     Ti1433    10.139   .     S
Li609     S1045    9.885   .     S
Li610     Be350    9.958   1_455     S
Li610     S613    10.191   .     S
Li610     Ti1433    10.139   1_455     S
Li610     S1024    9.885   1_455     S
Li611     Be266    9.958   1_455     S
Li611     Ti1410    10.139   1_455     S
Li611     S1023    9.885   1_455     S
Li612     Ti1417    10.139   .     S
Li612     S1026    9.885   .     S
S613     Li1043    9.885   1_455     S
S614     Li631    10.191   .     S
S614     S615    10.144   .     S
S614     C620    9.817   .     S
S614     Li1232    9.885   .     S
S615     Li634    10.191   .     S
S615     C619    9.817   .     S
S615     Li1233    9.885   .     S
S616     Li636    10.191   .     S
S616     S618    10.144   .     S
S616     C628    9.817   .     S
S616     Li1234    9.885   .     S
S617     Li635    10.191   .     S
S617     S637    10.144   .     S
S617     C625    9.817   .     S
S617     Li1231    9.885   .     S
S618     Li633    10.191   .     S
S618     C627    9.817   .     S
S618     Li1236    9.885   1_545     S
C619     C676    9.82   .     S
C619     Er621    9.751   1_565     S
C619     C620    9.728   .     S
C619     Li634    9.778   .     S
C620     C675    9.82   .     S
C620     Er623    9.751   1_565     S
C620     Li631    9.778   .     S
Er621     Er622    9.679   .     S
Er621     V1372    9.999   .     S
Er621     Ti1412    10.092   1_545     S
Er621     C619    9.751   1_545     S
Er621     Er673    9.886   .     S
Er622     Ti1412    10.092   1_545     S
Er622     C626    9.751   .     S
Er622     Er654    9.886   .     S
Er623     Er624    9.679   .     S
Er623     V1372    9.999   .     S
Er623     Ti153    10.092   1_545     S
Er623     C620    9.751   1_545     S
Er623     Er678    9.886   .     S
Er624     Ti153    10.092   1_545     S
Er624     C627    9.751   .     S
C625     C652    9.82   .     S
C625     Er630    9.751   .     S
C625     C626    9.728   .     S
C625     Li635    9.778   .     S
C626     S637    9.817   .     S
C626     C651    9.82   .     S
C626     Li632    9.778   .     S
C627     C628    9.728   .     S
C627     Li633    9.778   .     S
C628     Er629    9.751   .     S
C628     Li636    9.778   .     S
Er629     Er630    9.679   .     S
Er630     Er644    9.886   .     S
Li631     S1217    9.885   .     S
Li632     Be362    9.958   1_545     S
Li632     S637    10.191   .     S
Li632     Ti1412    10.139   1_545     S
Li632     S1216    9.885   1_545     S
Li633     Be351    9.958   1_545     S
Li633     Ti153    10.139   1_545     S
Li633     S1215    9.885   1_545     S
Li634     Ti1412    10.139   .     S
Li634     S1237    9.885   .     S
Li635     S1214    9.885   .     S
Li636     S1218    9.885   .     S
S637     Li1235    9.885   1_545     S
S638     Li660    10.191   .     S
S638     S639    10.144   .     S
S638     C650    9.817   .     S
S638     Li704    9.885   .     S
S639     Li655    10.191   .     S
S639     C649    9.817   .     S
S639     Li703    9.885   .     S
S640     Li658    10.191   .     S
S640     S661    10.144   .     S
S640     C651    9.817   .     S
S640     Li708    9.885   1_554     S
S641     Li659    10.191   .     S
S641     S642    10.144   .     S
S641     C647    9.817   .     S
S641     Li706    9.885   .     S
S642     Li657    10.191   .     S
S642     C648    9.817   .     S
S642     Li707    9.885   1_554     S
Er643     Er644    9.679   .     S
Er643     V1363    9.999   .     S
Er643     Ti1418    10.092   .     S
Er643     C647    9.751   .     S
Er644     Ti1418    10.092   .     S
Er644     C652    9.751   .     S
Er645     Er646    9.679   .     S
Er645     V1363    9.999   .     S
Er645     Ti1436    10.092   1_554     S
Er645     C648    9.751   .     S
Er646     Ti1436    10.092   1_554     S
Er646     C649    9.751   1_554     S
Er646     Er669    9.886   .     S
C647     C648    9.728   .     S
C647     Li659    9.778   .     S
C648     Li657    9.778   .     S
C649     C672    9.82   .     S
C649     Er646    9.751   1_556     S
C649     C650    9.728   .     S
C649     Li655    9.778   .     S
C650     C671    9.82   .     S
C650     Er653    9.751   1_556     S
C650     Li660    9.778   .     S
C651     Er654    9.751   .     S
C651     C652    9.728   .     S
C651     Li658    9.778   .     S
C652     S661    9.817   .     S
C652     Li656    9.778   .     S
Er653     Er654    9.679   .     S
Er653     Ti1407    10.092   1_554     S
Er653     C650    9.751   1_554     S
Er653     Er674    9.886   .     S
Er654     Ti1407    10.092   1_554     S
Li655     Ti1436    10.139   .     S
Li655     S687    9.885   .     S
Li656     S661    10.191   .     S
Li656     Ti1418    10.139   .     S
Li656     S709    9.885   .     S
Li657     Be267    9.958   1_554     S
Li657     Ti1436    10.139   1_554     S
Li657     S688    9.885   1_554     S
Li658     Be363    9.958   1_554     S
Li658     Ti1407    10.139   1_554     S
Li658     S686    9.885   1_554     S
Li659     Ti1418    10.139   .     S
Li659     S689    9.885   .     S
Li660     Ti1407    10.139   .     S
Li660     S690    9.885   .     S
S661     Li705    9.885   .     S
S662     Li684    10.191   .     S
S662     S685    10.144   .     S
S662     C671    9.817   .     S
S662     Li1089    9.885   1_545     S
S663     Li680    10.191   .     S
S663     S664    10.144   .     S
S663     C667    9.817   .     S
S663     Li1088    9.885   1_554     S
S664     Li679    10.191   .     S
S664     C668    9.817   .     S
S664     Li1091    9.885   1_545     S
S665     Li683    10.191   .     S
S665     S666    10.144   .     S
S665     C675    9.817   .     S
S665     Li1087    9.885   1_455     S
S666     Li682    10.191   .     S
S666     C676    9.817   .     S
S666     Li1090    9.885   1_554     S
C667     Er670    9.751   1_655     S
C667     C668    9.728   .     S
C667     Li680    9.778   .     S
C668     Er677    9.751   1_655     S
C668     Li679    9.778   .     S
Er669     Er670    9.679   .     S
Er669     V1367    9.999   .     S
Er669     Ti1439    10.092   1_454     S
Er669     C672    9.751   1_554     S
Er670     V1364    9.999   .     S
Er670     Ti1439    10.092   1_454     S
Er670     C667    9.751   1_455     S
C671     Er674    9.751   1_556     S
C671     C672    9.728   .     S
C671     Li684    9.778   .     S
C672     S685    9.817   .     S
C672     Er669    9.751   1_556     S
C672     Li681    9.778   .     S
Er673     Er674    9.679   .     S
Er673     V1365    9.999   .     S
Er673     Ti1408    10.092   1_544     S
Er673     C676    9.751   1_545     S
Er674     V1367    9.999   .     S
Er674     Ti1408    10.092   1_544     S
Er674     C671    9.751   1_554     S
C675     Er678    9.751   1_565     S
C675     C676    9.728   .     S
C675     Li683    9.778   .     S
C676     Er673    9.751   1_565     S
C676     Li682    9.778   .     S
Er677     Er678    9.679   .     S
Er677     V1364    9.999   .     S
Er677     Ti1409    10.092   1_445     S
Er677     C668    9.751   1_455     S
Er678     V1365    9.999   .     S
Er678     Ti1409    10.092   1_445     S
Er678     C675    9.751   1_545     S
Li679     Be420    9.958   1_545     S
Li679     Ti1409    10.139   1_545     S
Li679     S1072    9.885   1_545     S
Li680     Be427    9.958   1_554     S
Li680     Ti1439    10.139   1_554     S
Li680     S1074    9.885   1_554     S
Li681     Be396    9.958   1_455     S
Li681     S685    10.191   .     S
Li681     Ti1439    10.139   1_455     S
Li681     S1071    9.885   1_455     S
Li682     Be481    9.958   1_554     S
Li682     Ti1408    10.139   1_554     S
Li682     S1070    9.885   1_554     S
Li683     Be319    9.958   1_455     S
Li683     Ti1409    10.139   1_455     S
Li683     S1093    9.885   1_455     S
Li684     Be497    9.958   1_545     S
Li684     Ti1408    10.139   1_545     S
Li684     S1073    9.885   1_545     S
S685     Li1092    9.885   1_455     S
S686     Li708    10.191   .     S
S686     S690    10.144   .     S
S686     C697    9.817   .     S
S686     Li658    9.885   1_556     S
S687     Li703    10.191   .     S
S687     S688    10.144   .     S
S687     C692    9.817   .     S
S688     Li707    10.191   .     S
S688     C691    9.817   .     S
S688     Li657    9.885   1_556     S
S689     Li706    10.191   .     S
S689     S709    10.144   .     S
S689     C699    9.817   .     S
S690     Li704    10.191   .     S
S690     C698    9.817   .     S
C691     C772    9.82   .     S
C691     Er696    9.751   .     S
C691     C692    9.728   .     S
C691     Li707    9.778   .     S
C692     C771    9.82   .     S
C692     Er694    9.751   .     S
C692     Li703    9.778   .     S
Er693     Er694    9.679   .     S
Er693     V1369    9.999   .     S
Er693     C698    9.751   .     S
Er693     Er721    9.886   .     S
Er694     Er769    9.886   .     S
Er695     Er696    9.679   .     S
Er695     Ti1416    10.092   1_556     S
Er695     C699    9.751   1_556     S
Er695     Er743    9.886   .     S
Er696     Ti1416    10.092   1_556     S
Er696     Er774    9.886   .     S
C697     C726    9.82   .     S
C697     Er702    9.751   .     S
C697     C698    9.728   .     S
C697     Li708    9.778   .     S
C698     C725    9.82   .     S
C698     Li704    9.778   .     S
C699     C742    9.82   .     S
C699     Er695    9.751   1_554     S
C699     C700    9.728   .     S
C699     Li706    9.778   .     S
C700     S709    9.817   .     S
C700     C741    9.82   .     S
C700     Er701    9.751   1_554     S
C700     Li705    9.778   .     S
Er701     Er702    9.679   .     S
Er701     Ti155    10.092   1_556     S
Er701     C700    9.751   1_556     S
Er701     Er739    9.886   .     S
Er702     V1369    9.999   .     S
Er702     Ti155    10.092   1_556     S
Er702     Er723    9.886   .     S
Li705     S709    10.191   .     S
Li706     Ti1416    10.139   .     S
Li707     Be380    9.958   1_556     S
Li707     Ti1416    10.139   1_556     S
Li707     S642    9.885   1_556     S
Li708     Be224    9.958   1_556     S
Li708     Ti155    10.139   1_556     S
Li708     S640    9.885   1_556     S
S710     Li727    10.191   .     S
S710     S712    10.144   .     S
S710     C716    9.817   .     S
S710     Li847    9.885   .     S
S711     Li729    10.191   .     S
S711     S713    10.144   .     S
S711     C726    9.817   .     S
S711     Li851    9.885   .     S
S712     Li731    10.191   .     S
S712     C715    9.817   .     S
S712     Li850    9.885   .     S
S713     Li730    10.191   .     S
S713     C725    9.817   .     S
S713     Li849    9.885   .     S
S714     Li728    10.191   .     S
S714     S733    10.144   .     S
S714     C720    9.817   .     S
S714     Li848    9.885   .     S
C715     C766    9.82   .     S
C715     Er718    9.751   .     S
C715     C716    9.728   .     S
C715     Li731    9.778   .     S
C716     C765    9.82   .     S
C716     Er722    9.751   .     S
C716     Li727    9.778   .     S
Er717     Er718    9.679   .     S
Er717     C719    9.751   .     S
Er717     Er750    9.886   .     S
Er718     V1387    9.999   .     S
Er718     Er764    9.886   .     S
C719     S733    9.817   .     S
C719     C745    9.82   .     S
C719     C720    9.728   .     S
C719     Li732    9.778   .     S
C720     C746    9.82   .     S
C720     Er724    9.751   .     S
C720     Li728    9.778   .     S
Er721     Er722    9.679   .     S
Er721     V1360    9.999   .     S
Er721     C725    9.751   .     S
Er722     V1387    9.999   .     S
Er722     Er770    9.886   .     S
Er723     Er724    9.679   .     S
Er723     V1360    9.999   .     S
Er723     C726    9.751   .     S
Er724     Er740    9.886   .     S
C725     C726    9.728   .     S
C725     Li730    9.778   .     S
C726     Li729    9.778   .     S
Li727     S834    9.885   .     S
Li728     S832    9.885   .     S
Li729     S831    9.885   .     S
Li730     S833    9.885   .     S
Li731     S853    9.885   .     S
Li732     S733    10.191   .     S
Li732     S830    9.885   .     S
S733     Li852    9.885   .     S
S734     Li753    10.191   .     S
S734     S757    10.144   .     S
S734     C741    9.817   .     S
S734     Li899    9.885   .     S
S735     Li755    10.191   .     S
S735     S738    10.144   .     S
S735     C746    9.817   .     S
S735     Li896    9.885   1_556     S
S736     Li756    10.191   .     S
S736     S737    10.144   .     S
S736     C747    9.817   .     S
S736     Li895    9.885   1_556     S
S737     Li752    10.191   .     S
S737     C748    9.817   .     S
S737     Li898    9.885   .     S
S738     Li754    10.191   .     S
S738     C745    9.817   .     S
S738     Li900    9.885   .     S
Er739     Er740    9.679   .     S
Er739     Ti146    10.092   1_556     S
Er739     C741    9.751   1_556     S
Er740     Ti146    10.092   1_556     S
Er740     C746    9.751   .     S
C741     Er739    9.751   1_554     S
C741     C742    9.728   .     S
C741     Li753    9.778   .     S
C742     S757    9.817   .     S
C742     Er743    9.751   1_554     S
C742     Li751    9.778   .     S
Er743     Er744    9.679   .     S
Er743     Ti148    10.092   1_556     S
Er743     C742    9.751   1_556     S
Er744     Ti148    10.092   1_556     S
Er744     C747    9.751   .     S
Er744     Er773    9.886   .     S
C745     Er750    9.751   .     S
C745     C746    9.728   .     S
C745     Li754    9.778   .     S
C746     Li755    9.778   .     S
C747     C768    9.82   .     S
C747     C748    9.728   .     S
C747     Li756    9.778   .     S
C748     C767    9.82   .     S
C748     Er749    9.751   .     S
C748     Li752    9.778   .     S
Er749     Er750    9.679   .     S
Er749     Er763    9.886   .     S
Li751     S757    10.191   .     S
Li751     S881    9.885   .     S
Li752     S879    9.885   .     S
Li753     S880    9.885   .     S
Li754     S878    9.885   .     S
Li755     Be558    9.958   1_556     S
Li755     Ti146    10.139   1_556     S
Li755     S882    9.885   1_556     S
Li756     Be522    9.958   1_556     S
Li756     Ti148    10.139   1_556     S
Li756     S901    9.885   1_556     S
S757     Li897    9.885   .     S
S758     Li780    10.191   .     S
S758     S760    10.144   .     S
S758     C771    9.817   .     S
S758     Li1306    9.885   .     S
S759     Li778    10.191   .     S
S759     S762    10.144   .     S
S759     C765    9.817   .     S
S759     Li1303    9.885   .     S
S760     Li775    10.191   .     S
S760     C772    9.817   .     S
S760     Li1308    9.885   .     S
S761     Li777    10.191   .     S
S761     S781    10.144   .     S
S761     C767    9.817   .     S
S761     Li1304    9.885   .     S
S762     Li779    10.191   .     S
S762     C766    9.817   .     S
S762     Li1307    9.885   .     S
Er763     Er764    9.679   .     S
Er763     V1370    9.999   .     S
Er763     C767    9.751   .     S
Er764     V1395    9.999   .     S
Er764     C766    9.751   .     S
C765     Er770    9.751   .     S
C765     C766    9.728   .     S
C765     Li778    9.778   .     S
C766     Li779    9.778   .     S
C767     C768    9.728   .     S
C767     Li777    9.778   .     S
C768     S781    9.817   .     S
C768     Er773    9.751   .     S
C768     Li776    9.778   .     S
Er769     Er770    9.679   .     S
Er769     C771    9.751   .     S
Er770     V1395    9.999   .     S
C771     C772    9.728   .     S
C771     Li780    9.778   .     S
C772     Er774    9.751   .     S
C772     Li775    9.778   .     S
Er773     Er774    9.679   .     S
Er773     V1370    9.999   .     S
Li775     S1286    9.885   .     S
Li776     S781    10.191   .     S
Li776     S1287    9.885   .     S
Li777     S1288    9.885   .     S
Li778     S1290    9.885   .     S
Li779     S1309    9.885   .     S
Li780     S1289    9.885   .     S
S781     Li1305    9.885   .     S
S782     Li802    10.191   .     S
S782     S786    10.144   .     S
S782     C792    9.817   .     S
S782     Li1135    9.885   .     S
S783     Li801    10.191   .     S
S783     S805    10.144   .     S
S783     C796    9.817   .     S
S783     Li1136    9.885   .     S
S784     Li804    10.191   .     S
S784     S785    10.144   .     S
S784     C787    9.817   .     S
S784     Li1138    9.885   .     S
S785     Li800    10.191   .     S
S785     C788    9.817   .     S
S785     Li1140    9.885   1_545     S
S786     Li799    10.191   .     S
S786     C791    9.817   .     S
S786     Li1139    9.885   1_545     S
C787     C836    9.82   .     S
C787     Er794    9.751   .     S
C787     C788    9.728   .     S
C787     Li804    9.778   .     S
C788     C835    9.82   .     S
C788     Er798    9.751   .     S
C788     Li800    9.778   .     S
Er789     Er790    9.679   .     S
Er789     V1378    9.999   .     S
Er789     Ti144    10.092   1_545     S
Er789     C796    9.751   1_545     S
Er789     Er813    9.886   .     S
Er790     V1400    9.999   .     S
Er790     Ti144    10.092   1_545     S
Er790     C791    9.751   .     S
Er790     Er869    9.886   .     S
C791     C865    9.82   .     S
C791     C792    9.728   .     S
C791     Li799    9.778   .     S
C792     C866    9.82   .     S
C792     Er793    9.751   .     S
C792     Li802    9.778   .     S
Er793     Er794    9.679   .     S
Er793     V1400    9.999   .     S
Er793     Er862    9.886   .     S
Er794     Er844    9.886   .     S
C795     S805    9.817   .     S
C795     C811    9.82   .     S
C795     Er797    9.751   1_565     S
C795     C796    9.728   .     S
C795     Li803    9.778   .     S
C796     C812    9.82   .     S
C796     Er789    9.751   1_565     S
C796     Li801    9.778   .     S
Er797     Er798    9.679   .     S
Er797     V1378    9.999   .     S
Er797     Ti158    10.092   1_545     S
Er797     C795    9.751   1_545     S
Er797     Er817    9.886   .     S
Er798     Ti158    10.092   1_545     S
Er798     Er838    9.886   .     S
Li799     Be360    9.958   1_545     S
Li799     Ti144    10.139   1_545     S
Li799     S1141    9.885   1_545     S
Li800     Be366    9.958   1_545     S
Li800     Ti158    10.139   1_545     S
Li800     S1122    9.885   1_545     S
Li801     S1121    9.885   .     S
Li802     S1119    9.885   .     S
Li803     S805    10.191   .     S
Li803     S1120    9.885   .     S
Li804     S1118    9.885   .     S
S805     Li1137    9.885   .     S
S806     Li826    10.191   .     S
S806     S807    10.144   .     S
S806     C812    9.817   .     S
S806     Li1183    9.885   .     S
S807     Li827    10.191   .     S
S807     C811    9.817   .     S
S807     Li1184    9.885   .     S
S808     Li825    10.191   .     S
S808     S829    10.144   .     S
S808     C819    9.817   .     S
S808     Li1185    9.885   .     S
S809     Li828    10.191   .     S
S809     S810    10.144   .     S
S809     C815    9.817   .     S
S809     Li1186    9.885   .     S
S810     Li823    10.191   .     S
S810     C816    9.817   .     S
S810     Li1188    9.885   1_545     S
C811     Er817    9.751   1_565     S
C811     C812    9.728   .     S
C811     Li827    9.778   .     S
C812     Er813    9.751   1_565     S
C812     Li826    9.778   .     S
Er813     Er814    9.679   .     S
Er813     V1382    9.999   .     S
Er813     Ti154    10.092   1_545     S
Er813     C812    9.751   1_545     S
Er814     V1390    9.999   .     S
Er814     Ti154    10.092   1_545     S
Er814     C816    9.751   .     S
Er814     Er870    9.886   .     S
C815     C868    9.82   .     S
C815     Er821    9.751   .     S
C815     C816    9.728   .     S
C815     Li828    9.778   .     S
C816     C867    9.82   .     S
C816     Li823    9.778   .     S
Er817     Er818    9.679   .     S
Er817     V1382    9.999   .     S
Er817     Ti1434    10.092   1_545     S
Er817     C811    9.751   1_545     S
Er818     V1403    9.999   .     S
Er818     Ti1434    10.092   1_545     S
Er818     C820    9.751   .     S
Er818     Er837    9.886   .     S
C819     C841    9.82   .     S
C819     Er822    9.751   .     S
C819     C820    9.728   .     S
C819     Li825    9.778   .     S
C820     S829    9.817   .     S
C820     C842    9.82   .     S
C820     Li824    9.778   .     S
Er821     Er822    9.679   .     S
Er821     V1390    9.999   .     S
Er821     Ti1423    10.092   .     S
Er821     Er860    9.886   .     S
Er822     V1403    9.999   .     S
Er822     Ti1423    10.092   .     S
Er822     Er840    9.886   .     S
Li823     Be410    9.958   1_545     S
Li823     Ti154    10.139   1_545     S
Li823     S1168    9.885   1_545     S
Li824     Be498    9.958   1_545     S
Li824     S829    10.191   .     S
Li824     Ti1434    10.139   1_545     S
Li824     S1166    9.885   1_545     S
Li825     Ti1423    10.139   .     S
Li825     S1167    9.885   .     S
Li826     S1170    9.885   .     S
Li827     Ti1434    10.139   .     S
Li827     S1169    9.885   .     S
Li828     Ti1423    10.139   .     S
Li828     S1189    9.885   .     S
S829     Li1187    9.885   1_545     S
S830     Li852    10.191   .     S
S830     S853    10.144   .     S
S830     C846    9.817   .     S
S831     Li851    10.191   .     S
S831     S832    10.144   .     S
S831     C835    9.817   .     S
S832     Li848    10.191   .     S
S832     C836    9.817   .     S
S833     Li849    10.191   .     S
S833     S834    10.144   .     S
S833     C842    9.817   .     S
S834     Li847    10.191   .     S
S834     C841    9.817   .     S
C835     Er838    9.751   .     S
C835     C836    9.728   .     S
C835     Li851    9.778   .     S
C836     Er844    9.751   .     S
C836     Li848    9.778   .     S
Er837     Er838    9.679   .     S
Er837     V1404    9.999   .     S
Er837     C842    9.751   .     S
Er839     Er840    9.679   .     S
Er839     V1361    9.999   .     S
Er839     C845    9.751   .     S
Er839     Er859    9.886   .     S
Er840     V1404    9.999   .     S
Er840     C841    9.751   .     S
C841     C842    9.728   .     S
C841     Li847    9.778   .     S
C842     Li849    9.778   .     S
Er843     Er844    9.679   .     S
Er843     V1361    9.999   .     S
Er843     C846    9.751   .     S
Er843     Er861    9.886   .     S
C845     S853    9.817   .     S
C845     C863    9.82   .     S
C845     C846    9.728   .     S
C845     Li850    9.778   .     S
C846     C864    9.82   .     S
C846     Li852    9.778   .     S
Li850     S853    10.191   .     S
S854     Li874    10.191   .     S
S854     S855    10.144   .     S
S854     C865    9.817   .     S
S854     Li1016    9.885   .     S
S855     Li872    10.191   .     S
S855     C866    9.817   .     S
S855     Li1015    9.885   .     S
S856     Li873    10.191   .     S
S856     S877    10.144   .     S
S856     C864    9.817   .     S
S856     Li1019    9.885   .     S
S857     Li876    10.191   .     S
S857     S858    10.144   .     S
S857     C867    9.817   .     S
S857     Li1020    9.885   .     S
S858     Li871    10.191   .     S
S858     C868    9.817   .     S
S858     Li1017    9.885   .     S
Er859     Er860    9.679   .     S
Er859     V1385    9.999   .     S
Er859     C863    9.751   .     S
Er860     C868    9.751   .     S
Er861     Er862    9.679   .     S
Er861     V1385    9.999   .     S
Er861     C864    9.751   .     S
Er862     V1399    9.999   .     S
Er862     C866    9.751   .     S
C863     S877    9.817   .     S
C863     C864    9.728   .     S
C863     Li875    9.778   .     S
C864     Li873    9.778   .     S
C865     Er869    9.751   .     S
C865     C866    9.728   .     S
C865     Li874    9.778   .     S
C866     Li872    9.778   .     S
C867     Er870    9.751   .     S
C867     C868    9.728   .     S
C867     Li876    9.778   .     S
C868     Li871    9.778   .     S
Er869     Er870    9.679   .     S
Er869     V1399    9.999   .     S
Li871     S999    9.885   .     S
Li872     S1021    9.885   .     S
Li873     S1002    9.885   .     S
Li874     S1000    9.885   .     S
Li875     S877    10.191   .     S
Li875     S1001    9.885   .     S
Li876     S998    9.885   .     S
S877     Li1018    9.885   .     S
S878     Li900    10.191   .     S
S878     S879    10.144   .     S
S878     C893    9.817   .     S
S879     Li898    10.191   .     S
S879     C894    9.817   .     S
S880     Li899    10.191   .     S
S880     S882    10.144   .     S
S880     C889    9.817   .     S
S881     Li897    10.191   .     S
S881     S901    10.144   .     S
S881     C885    9.817   .     S
S882     Li896    10.191   .     S
S882     C890    9.817   .     S
S882     Li755    9.885   1_554     S
Er883     Er884    9.679   .     S
Er883     V1383    9.999   .     S
Er883     Ti152    10.092   1_554     S
Er883     C894    9.751   1_554     S
Er883     Er913    9.886   .     S
Er884     V1405    9.999   .     S
Er884     Ti152    10.092   1_554     S
Er884     C886    9.751   .     S
Er884     Er961    9.886   .     S
C885     C964    9.82   .     S
C885     Er888    9.751   .     S
C885     C886    9.728   .     S
C885     Li897    9.778   .     S
C886     S901    9.817   .     S
C886     C963    9.82   .     S
C886     Li895    9.778   .     S
Er887     Er888    9.679   .     S
Er887     V1406    9.999   .     S
Er887     Ti1425    10.092   .     S
Er887     C889    9.751   .     S
Er887     Er938    9.886   .     S
Er888     V1405    9.999   .     S
Er888     Ti1425    10.092   .     S
Er888     Er966    9.886   .     S
C889     C941    9.82   .     S
C889     C890    9.728   .     S
C889     Li899    9.778   .     S
C890     C942    9.82   .     S
C890     Er892    9.751   .     S
C890     Li896    9.778   .     S
Er891     Er892    9.679   .     S
Er891     V1383    9.999   .     S
Er891     Ti143    10.092   1_554     S
Er891     C893    9.751   1_554     S
Er891     Er917    9.886   .     S
Er892     V1406    9.999   .     S
Er892     Ti143    10.092   1_554     S
Er892     Er939    9.886   .     S
C893     C915    9.82   .     S
C893     Er891    9.751   1_556     S
C893     C894    9.728   .     S
C893     Li900    9.778   .     S
C894     C916    9.82   .     S
C894     Er883    9.751   1_556     S
C894     Li898    9.778   .     S
Li895     Be471    9.958   1_554     S
Li895     S901    10.191   .     S
Li895     Ti152    10.139   1_554     S
Li895     S736    9.885   1_554     S
Li896     Be422    9.958   1_554     S
Li896     Ti143    10.139   1_554     S
Li896     S735    9.885   1_554     S
Li897     Ti1425    10.139   .     S
Li899     Ti1425    10.139   .     S
S901     Li756    9.885   1_554     S
S902     Li922    10.191   .     S
S902     S905    10.144   .     S
S902     C911    9.817   .     S
S902     Li1111    9.885   .     S
S903     Li921    10.191   .     S
S903     S925    10.144   .     S
S903     C916    9.817   .     S
S903     Li1112    9.885   .     S
S904     Li924    10.191   .     S
S904     S906    10.144   .     S
S904     C907    9.817   .     S
S904     Li1113    9.885   .     S
S905     Li920    10.191   .     S
S905     C912    9.817   .     S
S905     Li1116    9.885   1_554     S
S906     Li919    10.191   .     S
S906     C908    9.817   .     S
S906     Li1115    9.885   1_554     S
C907     C931    9.82   .     S
C907     Er910    9.751   .     S
C907     C908    9.728   .     S
C907     Li924    9.778   .     S
C908     C932    9.82   .     S
C908     Er918    9.751   .     S
C908     Li919    9.778   .     S
Er909     Er910    9.679   .     S
Er909     V1397    9.999   .     S
Er909     C911    9.751   .     S
Er909     Er958    9.886   .     S
Er910     Er936    9.886   .     S
C911     C956    9.82   .     S
C911     C912    9.728   .     S
C911     Li922    9.778   .     S
C912     C955    9.82   .     S
C912     Er914    9.751   .     S
C912     Li920    9.778   .     S
Er913     Er914    9.679   .     S
Er913     V1381    9.999   .     S
Er913     Ti145    10.092   1_554     S
Er913     C916    9.751   1_554     S
Er914     V1397    9.999   .     S
Er914     Ti145    10.092   1_554     S
Er914     Er962    9.886   .     S
C915     S925    9.817   .     S
C915     Er917    9.751   1_556     S
C915     C916    9.728   .     S
C915     Li923    9.778   .     S
C916     Er913    9.751   1_556     S
C916     Li921    9.778   .     S
Er917     Er918    9.679   .     S
Er917     V1381    9.999   .     S
Er917     Ti151    10.092   1_554     S
Er917     C915    9.751   1_554     S
Er918     Ti151    10.092   1_554     S
Er918     Er940    9.886   .     S
Li919     Be276    9.958   1_554     S
Li919     Ti151    10.139   1_554     S
Li919     S1097    9.885   1_554     S
Li920     Be373    9.958   1_554     S
Li920     Ti145    10.139   1_554     S
Li920     S1096    9.885   1_554     S
Li921     S1098    9.885   .     S
Li922     S1095    9.885   .     S
Li923     S925    10.191   .     S
Li923     S1117    9.885   .     S
Li924     S1094    9.885   .     S
S925     Li1114    9.885   .     S
S926     Li948    10.191   .     S
S926     S949    10.144   .     S
S926     C934    9.817   .     S
S926     Li996    9.885   .     S
S927     Li947    10.191   .     S
S927     S928    10.144   .     S
S927     C932    9.817   .     S
S927     Li991    9.885   .     S
S928     Li945    10.191   .     S
S928     C931    9.817   .     S
S928     Li992    9.885   .     S
S929     Li944    10.191   .     S
S929     S930    10.144   .     S
S929     C942    9.817   .     S
S929     Li993    9.885   .     S
S930     Li943    10.191   .     S
S930     C941    9.817   .     S
S930     Li994    9.885   .     S
C931     Er936    9.751   .     S
C931     C932    9.728   .     S
C931     Li945    9.778   .     S
C932     Er940    9.751   .     S
C932     Li947    9.778   .     S
C933     S949    9.817   .     S
C933     C959    9.82   .     S
C933     Er937    9.751   .     S
C933     C934    9.728   .     S
C933     Li946    9.778   .     S
C934     C960    9.82   .     S
C934     Er935    9.751   .     S
C934     Li948    9.778   .     S
Er935     Er936    9.679   .     S
Er935     V1359    9.999   .     S
Er935     Er957    9.886   .     S
Er936     V1358    9.999   .     S
Er937     Er938    9.679   .     S
Er937     V1359    9.999   .     S
Er937     Er965    9.886   .     S
Er938     V1396    9.999   .     S
Er938     C941    9.751   .     S
Er939     Er940    9.679   .     S
Er939     V1396    9.999   .     S
Er939     C942    9.751   .     S
Er940     V1358    9.999   .     S
C941     C942    9.728   .     S
C941     Li943    9.778   .     S
C942     Li944    9.778   .     S
Li943     S978    9.885   .     S
Li944     S976    9.885   .     S
Li945     S977    9.885   .     S
Li946     S949    10.191   .     S
Li946     S975    9.885   .     S
Li947     S974    9.885   .     S
Li948     S997    9.885   .     S
S949     Li995    9.885   .     S
S950     Li972    10.191   .     S
S950     S951    10.144   .     S
S950     C955    9.817   .     S
S950     Li1256    9.885   .     S
S951     Li968    10.191   .     S
S951     C956    9.817   .     S
S951     Li1255    9.885   .     S
S952     Li969    10.191   .     S
S952     S973    10.144   .     S
S952     C960    9.817   .     S
S952     Li1257    9.885   .     S
S953     Li970    10.191   .     S
S953     S954    10.144   .     S
S953     C963    9.817   .     S
S953     Li1260    9.885   .     S
S954     Li967    10.191   .     S
S954     C964    9.817   .     S
S954     Li1258    9.885   .     S
C955     Er962    9.751   .     S
C955     C956    9.728   .     S
C955     Li972    9.778   .     S
C956     Er958    9.751   .     S
C956     Li968    9.778   .     S
Er957     Er958    9.679   .     S
Er957     V1386    9.999   .     S
Er957     C960    9.751   .     S
C959     S973    9.817   .     S
C959     Er965    9.751   .     S
C959     C960    9.728   .     S
C959     Li971    9.778   .     S
C960     Li969    9.778   .     S
Er961     Er962    9.679   .     S
Er961     V1391    9.999   .     S
Er961     Ti1427    10.092   .     S
Er961     C963    9.751   .     S
Er962     Ti1427    10.092   .     S
C963     C964    9.728   .     S
C963     Li970    9.778   .     S
C964     Er966    9.751   .     S
C964     Li967    9.778   .     S
Er965     Er966    9.679   .     S
Er965     V1386    9.999   .     S
Er965     Ti1424    10.092   .     S
Er966     V1391    9.999   .     S
Er966     Ti1424    10.092   .     S
Li967     Ti1424    10.139   .     S
Li967     S1239    9.885   .     S
Li968     S1261    9.885   .     S
Li969     S1241    9.885   .     S
Li970     Ti1427    10.139   .     S
Li970     S1238    9.885   .     S
Li971     S973    10.191   .     S
Li971     Ti1424    10.139   .     S
Li971     S1242    9.885   .     S
Li972     Ti1427    10.139   .     S
Li972     S1240    9.885   .     S
S973     Li1259    9.885   .     S
S974     Li991    10.191   .     S
S974     S976    10.144   .     S
S974     C988    9.817   .     S
S975     Li995    10.191   .     S
S975     S978    10.144   .     S
S975     C983    9.817   .     S
S976     Li993    10.191   .     S
S976     C987    9.817   .     S
S977     Li992    10.191   .     S
S977     S997    10.144   .     S
S977     C982    9.817   .     S
S978     Li994    10.191   .     S
S978     C984    9.817   .     S
Er979     Er980    9.679   .     S
Er979     C981    9.751   .     S
Er979     Er1061    9.886   .     S
Er980     V1392    9.999   .     S
Er980     C983    9.751   .     S
Er980     Er1004    9.886   .     S
C981     S997    9.817   .     S
C981     C1058    9.82   .     S
C981     C982    9.728   .     S
C981     Li996    9.778   .     S
C982     C1057    9.82   .     S
C982     Er990    9.751   .     S
C982     Li992    9.778   .     S
C983     C1006    9.82   .     S
C983     C984    9.728   .     S
C983     Li995    9.778   .     S
C984     C1005    9.82   .     S
C984     Er986    9.751   .     S
C984     Li994    9.778   .     S
Er985     Er986    9.679   .     S
Er985     V1368    9.999   .     S
Er985     C987    9.751   .     S
Er985     Er1030    9.886   .     S
Er986     V1392    9.999   .     S
Er986     Er1010    9.886   .     S
C987     C1032    9.82   .     S
C987     C988    9.728   .     S
C987     Li993    9.778   .     S
C988     C1031    9.82   .     S
C988     Er989    9.751   .     S
C988     Li991    9.778   .     S
Er989     Er990    9.679   .     S
Er989     V1368    9.999   .     S
Er989     Er1036    9.886   .     S
Er990     Er1052    9.886   .     S
Li996     S997    10.191   .     S
S998     Li1020    10.191   .     S
S998     S1000    10.144   .     S
S998     C1013    9.817   .     S
S999     Li1017    10.191   .     S
S999     S1001    10.144   .     S
S999     C1005    9.817   .     S
S1000     Li1016    10.191   .     S
S1000     C1014    9.817   .     S
S1001     Li1018    10.191   .     S
S1001     C1006    9.817   .     S
S1002     Li1019    10.191   .     S
S1002     S1021    10.144   .     S
S1002     C1007    9.817   .     S
Er1003     Er1004    9.679   .     S
Er1003     V1371    9.999   .     S
Er1003     C1007    9.751   .     S
Er1003     Er1062    9.886   .     S
Er1004     V1393    9.999   .     S
Er1004     C1006    9.751   .     S
C1005     Er1010    9.751   .     S
C1005     C1006    9.728   .     S
C1005     Li1017    9.778   .     S
C1006     Li1018    9.778   .     S
C1007     C1060    9.82   .     S
C1007     C1008    9.728   .     S
C1007     Li1019    9.778   .     S
C1008     S1021    9.817   .     S
C1008     C1059    9.82   .     S
C1008     Er1011    9.751   .     S
C1008     Li1015    9.778   .     S
Er1009     Er1010    9.679   .     S
Er1009     C1013    9.751   .     S
Er1009     Er1029    9.886   .     S
Er1010     V1393    9.999   .     S
Er1011     Er1012    9.679   .     S
Er1011     V1371    9.999   .     S
Er1011     Er1056    9.886   .     S
Er1012     C1014    9.751   .     S
Er1012     Er1038    9.886   .     S
C1013     C1027    9.82   .     S
C1013     C1014    9.728   .     S
C1013     Li1020    9.778   .     S
C1014     C1028    9.82   .     S
C1014     Li1016    9.778   .     S
Li1015     S1021    10.191   .     S
S1022     Li1040    10.191   .     S
S1022     S1026    10.144   .     S
S1022     C1034    9.817   .     S
S1023     Li1044    10.191   .     S
S1023     S1025    10.144   .     S
S1023     C1031    9.817   .     S
S1023     Li611    9.885   1_655     S
S1024     Li1043    10.191   .     S
S1024     S1045    10.144   .     S
S1024     C1028    9.817   .     S
S1024     Li610    9.885   1_655     S
S1025     Li1039    10.191   .     S
S1025     C1032    9.817   .     S
S1026     Li1042    10.191   .     S
S1026     C1033    9.817   .     S
C1027     S1045    9.817   .     S
C1027     Er1029    9.751   .     S
C1027     C1028    9.728   .     S
C1027     Li1041    9.778   .     S
C1028     Er1038    9.751   .     S
C1028     Li1043    9.778   .     S
Er1029     Er1030    9.679   .     S
Er1030     C1032    9.751   .     S
C1031     Er1036    9.751   .     S
C1031     C1032    9.728   .     S
C1031     Li1044    9.778   .     S
C1032     Li1039    9.778   .     S
C1033     C1053    9.82   .     S
C1033     Er1035    9.751   1_455     S
C1033     C1034    9.728   .     S
C1033     Li1042    9.778   .     S
C1034     C1054    9.82   .     S
C1034     Er1037    9.751   1_455     S
C1034     Li1040    9.778   .     S
Er1035     Er1036    9.679   .     S
Er1035     Ti1415    10.092   1_655     S
Er1035     C1033    9.751   1_655     S
Er1035     Er1051    9.886   .     S
Er1036     Ti1415    10.092   1_655     S
Er1037     Er1038    9.679   .     S
Er1037     Ti1413    10.092   1_655     S
Er1037     C1034    9.751   1_655     S
Er1037     Er1055    9.886   .     S
Er1038     Ti1413    10.092   1_655     S
Li1040     Ti1413    10.139   .     S
Li1041     S1045    10.191   .     S
Li1042     Ti1415    10.139   .     S
Li1043     Be212    9.958   1_655     S
Li1043     Ti1413    10.139   1_655     S
Li1043     S613    9.885   1_655     S
Li1044     Be384    9.958   1_655     S
Li1044     Ti1415    10.139   1_655     S
Li1044     S594    9.885   1_655     S
S1046     Li1064    10.191   .     S
S1046     S1069    10.144   .     S
S1046     C1053    9.817   .     S
S1046     Li1282    9.885   .     S
S1047     Li1066    10.191   .     S
S1047     S1048    10.144   .     S
S1047     C1060    9.817   .     S
S1047     Li1283    9.885   .     S
S1048     Li1068    10.191   .     S
S1048     C1059    9.817   .     S
S1048     Li1279    9.885   1_655     S
S1049     Li1067    10.191   .     S
S1049     S1050    10.144   .     S
S1049     C1057    9.817   .     S
S1049     Li1280    9.885   1_655     S
S1050     Li1065    10.191   .     S
S1050     C1058    9.817   .     S
S1050     Li1281    9.885   .     S
Er1051     Er1052    9.679   .     S
Er1051     Ti150    10.092   1_655     S
Er1051     C1053    9.751   1_655     S
Er1052     Ti150    10.092   1_655     S
Er1052     C1057    9.751   .     S
C1053     Er1051    9.751   1_455     S
C1053     C1054    9.728   .     S
C1053     Li1064    9.778   .     S
C1054     S1069    9.817   .     S
C1054     Er1055    9.751   1_455     S
C1054     Li1063    9.778   .     S
Er1055     Er1056    9.679   .     S
Er1055     Ti1429    10.092   1_655     S
Er1055     C1054    9.751   1_655     S
Er1056     Ti1429    10.092   1_655     S
Er1056     C1059    9.751   .     S
C1057     C1058    9.728   .     S
C1057     Li1067    9.778   .     S
C1058     Er1061    9.751   .     S
C1058     Li1065    9.778   .     S
C1059     C1060    9.728   .     S
C1059     Li1068    9.778   .     S
C1060     Er1062    9.751   .     S
C1060     Li1066    9.778   .     S
Er1061     Er1062    9.679   .     S
Li1063     S1069    10.191   .     S
Li1063     Ti1429    10.139   .     S
Li1063     S1265    9.885   .     S
Li1064     S1264    9.885   .     S
Li1065     S1262    9.885   .     S
Li1066     S1263    9.885   .     S
Li1067     Be342    9.958   1_655     S
Li1067     Ti150    10.139   1_655     S
Li1067     S1266    9.885   1_655     S
Li1068     Be402    9.958   1_655     S
Li1068     Ti1429    10.139   1_655     S
Li1068     S1285    9.885   1_655     S
S1069     Li1284    9.885   .     S
S1070     Li1090    10.191   .     S
S1070     S1073    10.144   .     S
S1070     C1076    9.817   .     S
S1070     Li682    9.885   1_556     S
S1071     Li1092    10.191   .     S
S1071     S1074    10.144   .     S
S1071     C1080    9.817   .     S
S1071     Li681    9.885   1_655     S
S1072     Li1091    10.191   .     S
S1072     S1093    10.144   .     S
S1072     C1083    9.817   .     S
S1072     Li679    9.885   1_565     S
S1073     Li1089    10.191   .     S
S1073     C1075    9.817   .     S
S1073     Li684    9.885   1_565     S
S1074     Li1088    10.191   .     S
S1074     C1079    9.817   .     S
S1074     Li680    9.885   1_556     S
C1075     C1150    9.82   .     S
C1075     Er1082    9.751   1_455     S
C1075     C1076    9.728   .     S
C1075     Li1089    9.778   .     S
C1076     C1149    9.82   .     S
C1076     Er1077    9.751   1_455     S
C1076     Li1090    9.778   .     S
Er1077     Er1078    9.679   .     S
Er1077     Ti1440    10.092   1_656     S
Er1077     C1076    9.751   1_655     S
Er1077     Er1147    9.886   .     S
Er1078     Ti1440    10.092   1_656     S
Er1078     C1084    9.751   1_556     S
Er1078     Er1103    9.886   .     S
C1079     C1126    9.82   .     S
C1079     Er1086    9.751   1_545     S
C1079     C1080    9.728   .     S
C1079     Li1088    9.778   .     S
C1080     C1125    9.82   .     S
C1080     Er1081    9.751   1_545     S
C1080     Li1092    9.778   .     S
Er1081     Er1082    9.679   .     S
Er1081     Ti1438    10.092   1_665     S
Er1081     C1080    9.751   1_565     S
Er1081     Er1123    9.886   .     S
Er1082     Ti1438    10.092   1_665     S
Er1082     C1075    9.751   1_655     S
Er1082     Er1151    9.886   .     S
C1083     C1101    9.82   .     S
C1083     Er1085    9.751   1_554     S
C1083     C1084    9.728   .     S
C1083     Li1091    9.778   .     S
C1084     S1093    9.817   .     S
C1084     C1102    9.82   .     S
C1084     Er1078    9.751   1_554     S
C1084     Li1087    9.778   .     S
Er1085     Er1086    9.679   .     S
Er1085     Ti1437    10.092   1_566     S
Er1085     C1083    9.751   1_556     S
Er1085     Er1099    9.886   .     S
Er1086     Ti1437    10.092   1_566     S
Er1086     C1079    9.751   1_565     S
Er1086     Er1127    9.886   .     S
Li1087     Be344    9.958   1_655     S
Li1087     S1093    10.191   .     S
Li1087     Ti1440    10.139   1_655     S
Li1087     S665    9.885   1_655     S
Li1088     Be564    9.958   1_556     S
Li1088     Ti1437    10.139   1_556     S
Li1088     S663    9.885   1_556     S
Li1089     Be542    9.958   1_565     S
Li1089     Ti1438    10.139   1_565     S
Li1089     S662    9.885   1_565     S
Li1090     Be528    9.958   1_556     S
Li1090     Ti1440    10.139   1_556     S
Li1090     S666    9.885   1_556     S
Li1091     Be540    9.958   1_565     S
Li1091     Ti1437    10.139   1_565     S
Li1091     S664    9.885   1_565     S
Li1092     Be408    9.958   1_655     S
Li1092     Ti1438    10.139   1_655     S
Li1092     S685    9.885   1_655     S
S1093     Li683    9.885   1_655     S
S1094     Li1113    10.191   .     S
S1094     S1095    10.144   .     S
S1094     C1102    9.817   .     S
S1095     Li1111    10.191   .     S
S1095     C1101    9.817   .     S
S1096     Li1116    10.191   .     S
S1096     S1098    10.144   .     S
S1096     C1106    9.817   .     S
S1096     Li920    9.885   1_556     S
S1097     Li1115    10.191   .     S
S1097     S1117    10.144   .     S
S1097     C1108    9.817   .     S
S1097     Li919    9.885   1_556     S
S1098     Li1112    10.191   .     S
S1098     C1105    9.817   .     S
Er1099     Er1100    9.679   .     S
Er1099     Ti1419    10.092   1_556     S
Er1099     C1101    9.751   1_556     S
Er1100     Ti1419    10.092   1_556     S
Er1100     C1106    9.751   .     S
Er1100     Er1128    9.886   .     S
C1101     Er1099    9.751   1_554     S
C1101     C1102    9.728   .     S
C1101     Li1111    9.778   .     S
C1102     Er1103    9.751   1_554     S
C1102     Li1113    9.778   .     S
Er1103     Er1104    9.679   .     S
Er1103     Ti1428    10.092   1_556     S
Er1103     C1102    9.751   1_556     S
Er1104     V1374    9.999   .     S
Er1104     Ti1428    10.092   1_556     S
Er1104     C1108    9.751   .     S
Er1104     Er1148    9.886   .     S
C1105     C1129    9.82   .     S
C1105     Er1109    9.751   .     S
C1105     C1106    9.728   .     S
C1105     Li1112    9.778   .     S
C1106     C1130    9.82   .     S
C1106     Li1116    9.778   .     S
C1107     S1117    9.817   .     S
C1107     C1155    9.82   .     S
C1107     Er1110    9.751   .     S
C1107     C1108    9.728   .     S
C1107     Li1114    9.778   .     S
C1108     C1156    9.82   .     S
C1108     Li1115    9.778   .     S
Er1109     Er1110    9.679   .     S
Er1109     Er1134    9.886   .     S
Er1110     V1374    9.999   .     S
Er1110     Er1157    9.886   .     S
Li1111     Ti1419    10.139   .     S
Li1113     Ti1428    10.139   .     S
Li1114     S1117    10.191   .     S
Li1115     Be378    9.958   1_556     S
Li1115     Ti1428    10.139   1_556     S
Li1115     S906    9.885   1_556     S
Li1116     Be223    9.958   1_556     S
Li1116     Ti1419    10.139   1_556     S
Li1116     S905    9.885   1_556     S
S1118     Li1138    10.191   .     S
S1118     S1119    10.144   .     S
S1118     C1126    9.817   .     S
S1119     Li1135    10.191   .     S
S1119     C1125    9.817   .     S
S1120     Li1137    10.191   .     S
S1120     S1122    10.144   .     S
S1120     C1129    9.817   .     S
S1121     Li1136    10.191   .     S
S1121     S1141    10.144   .     S
S1121     C1132    9.817   .     S
S1122     Li1140    10.191   .     S
S1122     C1130    9.817   .     S
S1122     Li800    9.885   1_565     S
Er1123     Er1124    9.679   .     S
Er1123     Ti1431    10.092   1_565     S
Er1123     C1125    9.751   1_565     S
Er1124     Ti1431    10.092   1_565     S
Er1124     C1131    9.751   .     S
Er1124     Er1152    9.886   .     S
C1125     Er1123    9.751   1_545     S
C1125     C1126    9.728   .     S
C1125     Li1135    9.778   .     S
C1126     Er1127    9.751   1_545     S
C1126     Li1138    9.778   .     S
Er1127     Er1128    9.679   .     S
Er1127     Ti1432    10.092   1_565     S
Er1127     C1126    9.751   1_565     S
Er1128     V1373    9.999   .     S
Er1128     Ti1432    10.092   1_565     S
Er1128     C1130    9.751   .     S
C1129     Er1134    9.751   .     S
C1129     C1130    9.728   .     S
C1129     Li1137    9.778   .     S
C1130     Li1140    9.778   .     S
C1131     S1141    9.817   .     S
C1131     C1154    9.82   .     S
C1131     C1132    9.728   .     S
C1131     Li1139    9.778   .     S
C1132     C1153    9.82   .     S
C1132     Er1133    9.751   .     S
C1132     Li1136    9.778   .     S
Er1133     Er1134    9.679   .     S
Er1133     Er1158    9.886   .     S
Er1134     V1373    9.999   .     S
Li1135     Ti1431    10.139   .     S
Li1138     Ti1432    10.139   .     S
Li1139     Be211    9.958   1_565     S
Li1139     S1141    10.191   .     S
Li1139     Ti1431    10.139   1_565     S
Li1139     S786    9.885   1_565     S
Li1140     Be222    9.958   1_565     S
Li1140     Ti1432    10.139   1_565     S
Li1140     S785    9.885   1_565     S
S1141     Li799    9.885   1_565     S
S1142     Li1162    10.191   .     S
S1142     S1143    10.144   .     S
S1142     C1150    9.817   .     S
S1142     Li1356    9.885   .     S
S1143     Li1159    10.191   .     S
S1143     C1149    9.817   .     S
S1143     Li1354    9.885   .     S
S1144     Li1161    10.191   .     S
S1144     S1145    10.144   .     S
S1144     C1153    9.817   .     S
S1144     Li1355    9.885   .     S
S1145     Li1164    10.191   .     S
S1145     C1154    9.817   .     S
S1145     Li1352    9.885   1_655     S
S1146     Li1163    10.191   .     S
S1146     S1165    10.144   .     S
S1146     C1156    9.817   .     S
S1146     Li1351    9.885   1_655     S
Er1147     Er1148    9.679   .     S
Er1147     Ti1420    10.092   1_655     S
Er1147     C1149    9.751   1_655     S
Er1148     Ti1420    10.092   1_655     S
Er1148     C1156    9.751   .     S
C1149     Er1147    9.751   1_455     S
C1149     C1150    9.728   .     S
C1149     Li1159    9.778   .     S
C1150     Er1151    9.751   1_455     S
C1150     Li1162    9.778   .     S
Er1151     Er1152    9.679   .     S
Er1151     Ti1430    10.092   1_655     S
Er1151     C1150    9.751   1_655     S
Er1152     V1375    9.999   .     S
Er1152     Ti1430    10.092   1_655     S
Er1152     C1154    9.751   .     S
C1153     Er1158    9.751   .     S
C1153     C1154    9.728   .     S
C1153     Li1161    9.778   .     S
C1154     Li1164    9.778   .     S
C1155     S1165    9.817   .     S
C1155     Er1157    9.751   .     S
C1155     C1156    9.728   .     S
C1155     Li1160    9.778   .     S
C1156     Li1163    9.778   .     S
Er1157     Er1158    9.679   .     S
Er1158     V1375    9.999   .     S
Li1159     Ti1420    10.139   .     S
Li1159     S1334    9.885   .     S
Li1160     S1165    10.191   .     S
Li1160     S1335    9.885   .     S
Li1161     S1357    9.885   .     S
Li1162     Ti1430    10.139   .     S
Li1162     S1336    9.885   .     S
Li1163     Be379    9.958   1_655     S
Li1163     Ti1420    10.139   1_655     S
Li1163     S1338    9.885   1_655     S
Li1164     Be210    9.958   1_655     S
Li1164     Ti1430    10.139   1_655     S
Li1164     S1337    9.885   1_655     S
S1165     Li1353    9.885   .     S
S1166     Li1187    10.191   .     S
S1166     S1169    10.144   .     S
S1166     C1175    9.817   .     S
S1166     Li824    9.885   1_565     S
S1167     Li1185    10.191   .     S
S1167     S1189    10.144   .     S
S1167     C1179    9.817   .     S
S1168     Li1188    10.191   .     S
S1168     S1170    10.144   .     S
S1168     C1171    9.817   .     S
S1168     Li823    9.885   1_565     S
S1169     Li1184    10.191   .     S
S1169     C1176    9.817   .     S
S1170     Li1183    10.191   .     S
S1170     C1172    9.817   .     S
C1171     C1244    9.82   .     S
C1171     Er1182    9.751   .     S
C1171     C1172    9.728   .     S
C1171     Li1188    9.778   .     S
C1172     C1243    9.82   .     S
C1172     Er1174    9.751   .     S
C1172     Li1183    9.778   .     S
Er1173     Er1174    9.679   .     S
Er1173     C1176    9.751   .     S
Er1173     Er1197    9.886   .     S
Er1174     Er1253    9.886   .     S
C1175     C1195    9.82   .     S
C1175     Er1178    9.751   .     S
C1175     C1176    9.728   .     S
C1175     Li1187    9.778   .     S
C1176     C1196    9.82   .     S
C1176     Li1184    9.778   .     S
Er1177     Er1178    9.679   .     S
Er1177     Ti147    10.092   1_565     S
Er1177     C1179    9.751   1_565     S
Er1177     Er1227    9.886   .     S
Er1178     Ti147    10.092   1_565     S
Er1178     Er1206    9.886   .     S
C1179     C1230    9.82   .     S
C1179     Er1177    9.751   1_545     S
C1179     C1180    9.728   .     S
C1179     Li1185    9.778   .     S
C1180     S1189    9.817   .     S
C1180     C1229    9.82   .     S
C1180     Er1181    9.751   1_545     S
C1180     Li1186    9.778   .     S
Er1181     Er1182    9.679   .     S
Er1181     Ti149    10.092   1_565     S
Er1181     C1180    9.751   1_565     S
Er1181     Er1225    9.886   .     S
Er1182     Ti149    10.092   1_565     S
Er1182     Er1250    9.886   .     S
Li1186     S1189    10.191   .     S
Li1187     Be552    9.958   1_565     S
Li1187     Ti147    10.139   1_565     S
Li1187     S829    9.885   1_565     S
Li1188     Be534    9.958   1_565     S
Li1188     Ti149    10.139   1_565     S
Li1188     S810    9.885   1_565     S
S1190     Li1208    10.191   .     S
S1190     S1191    10.144   .     S
S1190     C1203    9.817   .     S
S1190     Li1327    9.885   .     S
S1191     Li1207    10.191   .     S
S1191     C1204    9.817   .     S
S1191     Li1332    9.885   .     S
S1192     Li1209    10.191   .     S
S1192     S1193    10.144   .     S
S1192     C1200    9.817   .     S
S1192     Li1330    9.885   .     S
S1193     Li1211    10.191   .     S
S1193     C1199    9.817   .     S
S1193     Li1328    9.885   .     S
S1194     Li1212    10.191   .     S
S1194     S1213    10.144   .     S
S1194     C1196    9.817   .     S
S1194     Li1331    9.885   .     S
C1195     S1213    9.817   .     S
C1195     Er1206    9.751   .     S
C1195     C1196    9.728   .     S
C1195     Li1210    9.778   .     S
C1196     Er1197    9.751   .     S
C1196     Li1212    9.778   .     S
Er1197     Er1198    9.679   .     S
Er1197     Ti1421    10.092   .     S
Er1198     Ti1421    10.092   .     S
Er1198     C1199    9.751   .     S
Er1198     Er1254    9.886   .     S
C1199     C1252    9.82   .     S
C1199     C1200    9.728   .     S
C1199     Li1211    9.778   .     S
C1200     C1251    9.82   .     S
C1200     Er1202    9.751   .     S
C1200     Li1209    9.778   .     S
Er1201     Er1202    9.679   .     S
Er1201     C1203    9.751   .     S
Er1201     Er1221    9.886   .     S
Er1202     Er1246    9.886   .     S
C1203     C1220    9.82   .     S
C1203     C1204    9.728   .     S
C1203     Li1208    9.778   .     S
C1204     C1219    9.82   .     S
C1204     Er1205    9.751   .     S
C1204     Li1207    9.778   .     S
Er1205     Er1206    9.679   .     S
Er1205     Er1228    9.886   .     S
Li1207     S1310    9.885   .     S
Li1208     S1312    9.885   .     S
Li1209     S1314    9.885   .     S
Li1210     S1213    10.191   .     S
Li1210     S1311    9.885   .     S
Li1211     Ti1421    10.139   .     S
Li1211     S1313    9.885   .     S
Li1212     Ti1421    10.139   .     S
Li1212     S1333    9.885   .     S
S1213     Li1329    9.885   .     S
S1214     Li1231    10.191   .     S
S1214     S1218    10.144   .     S
S1214     C1229    9.817   .     S
S1215     Li1236    10.191   .     S
S1215     S1217    10.144   .     S
S1215     C1219    9.817   .     S
S1215     Li633    9.885   1_565     S
S1216     Li1235    10.191   .     S
S1216     S1237    10.144   .     S
S1216     C1224    9.817   .     S
S1216     Li632    9.885   1_565     S
S1217     Li1232    10.191   .     S
S1217     C1220    9.817   .     S
S1218     Li1234    10.191   .     S
S1218     C1230    9.817   .     S
C1219     Er1228    9.751   .     S
C1219     C1220    9.728   .     S
C1219     Li1236    9.778   .     S
C1220     Er1221    9.751   .     S
C1220     Li1232    9.778   .     S
Er1221     Er1222    9.679   .     S
Er1222     C1223    9.751   .     S
Er1222     Er1245    9.886   .     S
C1223     S1237    9.817   .     S
C1223     C1247    9.82   .     S
C1223     C1224    9.728   .     S
C1223     Li1233    9.778   .     S
C1224     C1248    9.82   .     S
C1224     Er1226    9.751   .     S
C1224     Li1235    9.778   .     S
Er1225     Er1226    9.679   .     S
Er1225     Ti1422    10.092   1_565     S
Er1225     C1229    9.751   1_565     S
Er1226     Ti1422    10.092   1_565     S
Er1226     Er1249    9.886   .     S
Er1227     Er1228    9.679   .     S
Er1227     Ti1411    10.092   1_565     S
Er1227     C1230    9.751   1_565     S
Er1228     Ti1411    10.092   1_565     S
C1229     Er1225    9.751   1_545     S
C1229     C1230    9.728   .     S
C1229     Li1231    9.778   .     S
C1230     Er1227    9.751   1_545     S
C1230     Li1234    9.778   .     S
Li1231     Ti1422    10.139   .     S
Li1233     S1237    10.191   .     S
Li1234     Ti1411    10.139   .     S
Li1235     Be228    9.958   1_565     S
Li1235     Ti1422    10.139   1_565     S
Li1235     S637    9.885   1_565     S
Li1236     Be216    9.958   1_565     S
Li1236     Ti1411    10.139   1_565     S
Li1236     S618    9.885   1_565     S
S1238     Li1260    10.191   .     S
S1238     S1240    10.144   .     S
S1238     C1247    9.817   .     S
S1239     Li1258    10.191   .     S
S1239     S1242    10.144   .     S
S1239     C1251    9.817   .     S
S1240     Li1256    10.191   .     S
S1240     C1248    9.817   .     S
S1241     Li1257    10.191   .     S
S1241     S1261    10.144   .     S
S1241     C1243    9.817   .     S
S1242     Li1259    10.191   .     S
S1242     C1252    9.817   .     S
C1243     Er1253    9.751   .     S
C1243     C1244    9.728   .     S
C1243     Li1257    9.778   .     S
C1244     S1261    9.817   .     S
C1244     Er1250    9.751   .     S
C1244     Li1255    9.778   .     S
Er1245     Er1246    9.679   .     S
Er1245     C1247    9.751   .     S
Er1246     C1251    9.751   .     S
C1247     C1248    9.728   .     S
C1247     Li1260    9.778   .     S
C1248     Er1249    9.751   .     S
C1248     Li1256    9.778   .     S
Er1249     Er1250    9.679   .     S
Er1250     V1362    9.999   .     S
C1251     C1252    9.728   .     S
C1251     Li1258    9.778   .     S
C1252     Er1254    9.751   .     S
C1252     Li1259    9.778   .     S
Er1253     Er1254    9.679   .     S
Er1253     V1362    9.999   .     S
Li1255     S1261    10.191   .     S
S1262     Li1281    10.191   .     S
S1262     S1263    10.144   .     S
S1262     C1274    9.817   .     S
S1263     Li1283    10.191   .     S
S1263     C1273    9.817   .     S
S1264     Li1282    10.191   .     S
S1264     S1266    10.144   .     S
S1264     C1277    9.817   .     S
S1265     Li1284    10.191   .     S
S1265     S1285    10.144   .     S
S1265     C1269    9.817   .     S
S1266     Li1280    10.191   .     S
S1266     C1278    9.817   .     S
S1266     Li1067    9.885   1_455     S
Er1267     Er1268    9.679   .     S
Er1267     V1388    9.999   .     S
Er1267     C1277    9.751   .     S
Er1267     Er1320    9.886   .     S
Er1268     V1401    9.999   .     S
Er1268     C1269    9.751   .     S
Er1268     Er1302    9.886   .     S
C1269     C1299    9.82   .     S
C1269     C1270    9.728   .     S
C1269     Li1284    9.778   .     S
C1270     S1285    9.817   .     S
C1270     C1300    9.82   .     S
C1270     Er1272    9.751   .     S
C1270     Li1279    9.778   .     S
Er1271     Er1272    9.679   .     S
Er1271     V1380    9.999   .     S
Er1271     Ti157    10.092   1_455     S
Er1271     C1273    9.751   1_455     S
Er1271     Er1345    9.886   .     S
Er1272     V1401    9.999   .     S
Er1272     Ti157    10.092   1_455     S
Er1272     Er1297    9.886   .     S
C1273     C1342    9.82   .     S
C1273     Er1271    9.751   1_655     S
C1273     C1274    9.728   .     S
C1273     Li1283    9.778   .     S
C1274     C1341    9.82   .     S
C1274     Er1275    9.751   1_655     S
C1274     Li1281    9.778   .     S
Er1275     Er1276    9.679   .     S
Er1275     V1380    9.999   .     S
Er1275     Ti1435    10.092   1_455     S
Er1275     C1274    9.751   1_455     S
Er1275     Er1339    9.886   .     S
Er1276     V1388    9.999   .     S
Er1276     Ti1435    10.092   1_455     S
Er1276     C1278    9.751   .     S
Er1276     Er1317    9.886   .     S
C1277     C1322    9.82   .     S
C1277     C1278    9.728   .     S
C1277     Li1282    9.778   .     S
C1278     C1321    9.82   .     S
C1278     Li1280    9.778   .     S
Li1279     Be386    9.958   1_455     S
Li1279     S1285    10.191   .     S
Li1279     Ti157    10.139   1_455     S
Li1279     S1048    9.885   1_455     S
Li1280     Be314    9.958   1_455     S
Li1280     Ti1435    10.139   1_455     S
Li1280     S1049    9.885   1_455     S
Li1281     Ti1435    10.139   .     S
S1285     Li1068    9.885   1_455     S
S1286     Li1308    10.191   .     S
S1286     S1287    10.144   .     S
S1286     C1291    9.817   .     S
S1287     Li1305    10.191   .     S
S1287     C1292    9.817   .     S
S1288     Li1304    10.191   .     S
S1288     S1309    10.144   .     S
S1288     C1294    9.817   .     S
S1289     Li1306    10.191   .     S
S1289     S1290    10.144   .     S
S1289     C1300    9.817   .     S
S1290     Li1303    10.191   .     S
S1290     C1299    9.817   .     S
C1291     C1347    9.82   .     S
C1291     Er1298    9.751   .     S
C1291     C1292    9.728   .     S
C1291     Li1308    9.778   .     S
C1292     C1348    9.82   .     S
C1292     Er1296    9.751   .     S
C1292     Li1305    9.778   .     S
C1293     S1309    9.817   .     S
C1293     C1324    9.82   .     S
C1293     Er1301    9.751   .     S
C1293     C1294    9.728   .     S
C1293     Li1307    9.778   .     S
C1294     C1323    9.82   .     S
C1294     Er1295    9.751   .     S
C1294     Li1304    9.778   .     S
Er1295     Er1296    9.679   .     S
Er1295     V1377    9.999   .     S
Er1295     Er1325    9.886   .     S
Er1296     V1394    9.999   .     S
Er1296     Er1349    9.886   .     S
Er1297     Er1298    9.679   .     S
Er1297     V1389    9.999   .     S
Er1297     C1300    9.751   .     S
Er1298     V1394    9.999   .     S
Er1298     Er1346    9.886   .     S
C1299     Er1302    9.751   .     S
C1299     C1300    9.728   .     S
C1299     Li1303    9.778   .     S
C1300     Li1306    9.778   .     S
Er1301     Er1302    9.679   .     S
Er1301     V1377    9.999   .     S
Er1301     Ti1426    10.092   .     S
Er1301     Er1319    9.886   .     S
Er1302     V1389    9.999   .     S
Er1302     Ti1426    10.092   .     S
Li1303     Ti1426    10.139   .     S
Li1307     S1309    10.191   .     S
Li1307     Ti1426    10.139   .     S
S1310     Li1332    10.191   .     S
S1310     S1311    10.144   .     S
S1310     C1315    9.817   .     S
S1311     Li1329    10.191   .     S
S1311     C1316    9.817   .     S
S1312     Li1327    10.191   .     S
S1312     S1314    10.144   .     S
S1312     C1321    9.817   .     S
S1313     Li1328    10.191   .     S
S1313     S1333    10.144   .     S
S1313     C1324    9.817   .     S
S1314     Li1330    10.191   .     S
S1314     C1322    9.817   .     S
C1315     C1344    9.82   .     S
C1315     Er1318    9.751   .     S
C1315     C1316    9.728   .     S
C1315     Li1332    9.778   .     S
C1316     C1343    9.82   .     S
C1316     Er1326    9.751   .     S
C1316     Li1329    9.778   .     S
Er1317     Er1318    9.679   .     S
Er1317     V1402    9.999   .     S
Er1317     C1321    9.751   .     S
Er1318     Er1340    9.886   .     S
Er1319     Er1320    9.679   .     S
Er1319     V1376    9.999   .     S
Er1319     C1324    9.751   .     S
Er1320     V1402    9.999   .     S
Er1320     C1322    9.751   .     S
C1321     C1322    9.728   .     S
C1321     Li1327    9.778   .     S
C1322     Li1330    9.778   .     S
C1323     S1333    9.817   .     S
C1323     Er1325    9.751   .     S
C1323     C1324    9.728   .     S
C1323     Li1331    9.778   .     S
C1324     Li1328    9.778   .     S
Er1325     Er1326    9.679   .     S
Er1325     V1376    9.999   .     S
Er1326     Er1350    9.886   .     S
Li1331     S1333    10.191   .     S
S1334     Li1354    10.191   .     S
S1334     S1338    10.144   .     S
S1334     C1348    9.817   .     S
S1335     Li1353    10.191   .     S
S1335     S1357    10.144   .     S
S1335     C1342    9.817   .     S
S1336     Li1356    10.191   .     S
S1336     S1337    10.144   .     S
S1336     C1343    9.817   .     S
S1337     Li1352    10.191   .     S
S1337     C1344    9.817   .     S
S1337     Li1164    9.885   1_455     S
S1338     Li1351    10.191   .     S
S1338     C1347    9.817   .     S
S1338     Li1163    9.885   1_455     S
Er1339     Er1340    9.679   .     S
Er1339     V1379    9.999   .     S
Er1339     Ti156    10.092   1_455     S
Er1339     C1341    9.751   1_455     S
Er1340     Ti156    10.092   1_455     S
Er1340     C1344    9.751   .     S
C1341     S1357    9.817   .     S
C1341     Er1339    9.751   1_655     S
C1341     C1342    9.728   .     S
C1341     Li1355    9.778   .     S
C1342     Er1345    9.751   1_655     S
C1342     Li1353    9.778   .     S
C1343     Er1350    9.751   .     S
C1343     C1344    9.728   .     S
C1343     Li1356    9.778   .     S
C1344     Li1352    9.778   .     S
Er1345     Er1346    9.679   .     S
Er1345     V1379    9.999   .     S
Er1345     Ti1414    10.092   1_455     S
Er1345     C1342    9.751   1_455     S
Er1346     V1398    9.999   .     S
Er1346     Ti1414    10.092   1_455     S
Er1346     C1347    9.751   .     S
C1347     C1348    9.728   .     S
C1347     Li1351    9.778   .     S
C1348     Er1349    9.751   .     S
C1348     Li1354    9.778   .     S
Er1349     Er1350    9.679   .     S
Er1349     V1398    9.999   .     S
Li1351     Be270    9.958   1_455     S
Li1351     Ti1414    10.139   1_455     S
Li1351     S1146    9.885   1_455     S
Li1352     Be354    9.958   1_455     S
Li1352     Ti156    10.139   1_455     S
Li1352     S1145    9.885   1_455     S
Li1353     Ti1414    10.139   .     S
Li1355     S1357    10.191   .     S
V1358     V1396    10.001   .     S
V1358     V1359    10.001   .     S
V1359     V1396    10.001   .     S
V1359     V1386    10.006   .     S
V1360     V1387    10.001   .     S
V1360     V1369    10.006   .     S
V1361     V1404    10.001   .     S
V1361     V1385    10.006   .     S
V1363     V1366    10.006   .     S
V1364     V1365    10.001   .     S
V1364     V1367    10.001   .     S
V1365     V1367    10.001   .     S
V1365     V1372    10.006   .     S
V1366     V1384    10.001   .     S
V1368     V1392    10.001   .     S
V1370     V1395    10.001   .     S
V1371     V1393    10.001   .     S
V1376     V1402    10.001   .     S
V1376     V1377    10.006   .     S
V1377     V1394    10.001   .     S
V1377     V1389    10.001   .     S
V1378     V1400    10.001   .     S
V1378     V1382    10.006   .     S
V1379     V1398    10.001   .     S
V1379     V1380    10.006   .     S
V1380     V1401    10.001   .     S
V1380     V1388    10.001   .     S
V1381     V1397    10.001   .     S
V1381     V1383    10.006   .     S
V1382     V1403    10.001   .     S
V1382     V1390    10.001   .     S
V1383     V1406    10.001   .     S
V1383     V1405    10.001   .     S
V1385     V1399    10.001   .     S
V1386     V1391    10.001   .     S
V1387     V1395    10.006   .     S
V1388     V1401    10.001   .     S
V1388     V1402    10.006   .     S
V1389     V1394    10.001   .     S
V1389     V1401    10.006   .     S
V1390     V1403    10.001   .     S
V1391     V1405    10.006   .     S
V1392     V1393    10.006   .     S
V1394     V1398    10.006   .     S
V1396     V1406    10.006   .     S
V1399     V1400    10.006   .     S
V1403     V1404    10.006   .     S
V1405     V1406    10.001   .     S
Ti1407     Er653    10.092   1_556     S
Ti1407     Er654    10.092   1_556     S
Ti1407     Li658    10.139   1_556     S
Ti1407     Ce1457    10.115   .     S
Ti1408     Er673    10.092   1_566     S
Ti1408     Er674    10.092   1_566     S
Ti1408     Li684    10.139   1_565     S
Ti1408     Li682    10.139   1_556     S
Ti1408     Ce1441    10.115   .     S
Ti1409     Er677    10.092   1_665     S
Ti1409     Er678    10.092   1_665     S
Ti1409     Li683    10.139   1_655     S
Ti1409     Li679    10.139   1_565     S
Ti1409     Ce1442    10.115   .     S
Ti1410     Er604    10.092   1_655     S
Ti1410     Er603    10.092   1_655     S
Ti1410     Li611    10.139   1_655     S
Ti1410     Ce1519    10.115   .     S
Ti1411     Er1228    10.092   1_545     S
Ti1411     Er1227    10.092   1_545     S
Ti1411     Li1236    10.139   1_545     S
Ti1411     Ce1507    10.115   .     S
Ti1412     Er621    10.092   1_565     S
Ti1412     Er622    10.092   1_565     S
Ti1412     Li632    10.139   1_565     S
Ti1412     Ce1455    10.115   .     S
Ti1413     Er1038    10.092   1_455     S
Ti1413     Er1037    10.092   1_455     S
Ti1413     Li1043    10.139   1_455     S
Ti1413     Ce1444    10.115   .     S
Ti1414     Er1345    10.092   1_655     S
Ti1414     Er1346    10.092   1_655     S
Ti1414     Li1351    10.139   1_655     S
Ti1414     Ce1532    10.115   .     S
Ti1415     Er1035    10.092   1_455     S
Ti1415     Er1036    10.092   1_455     S
Ti1415     Li1044    10.139   1_455     S
Ti1415     Ce1504    10.115   .     S
Ti1416     Er696    10.092   1_554     S
Ti1416     Er695    10.092   1_554     S
Ti1416     Li707    10.139   1_554     S
Ti1416     Ce1510    10.115   .     S
Ti1417     Ce1512    10.115   .     S
Ti1418     Ce1515    10.115   .     S
Ti1419     Er1099    10.092   1_554     S
Ti1419     Er1100    10.092   1_554     S
Ti1419     Li1116    10.139   1_554     S
Ti1419     Ce1496    10.115   .     S
Ti1420     Er1147    10.092   1_455     S
Ti1420     Er1148    10.092   1_455     S
Ti1420     Li1163    10.139   1_455     S
Ti1420     Ce1499    10.115   .     S
Ti1421     Ce1492    10.115   .     S
Ti1422     Er1226    10.092   1_545     S
Ti1422     Er1225    10.092   1_545     S
Ti1422     Li1235    10.139   1_545     S
Ti1422     Ce1443    10.115   .     S
Ti1423     Ce1514    10.115   .     S
Ti1424     Ce1472    10.115   .     S
Ti1425     Ce1520    10.115   .     S
Ti1426     Ce1479    10.115   .     S
Ti1427     Ce1509    10.115   .     S
Ti1428     Er1103    10.092   1_554     S
Ti1428     Er1104    10.092   1_554     S
Ti1428     Li1115    10.139   1_554     S
Ti1428     Ce1494    10.115   .     S
Ti1429     Er1055    10.092   1_455     S
Ti1429     Er1056    10.092   1_455     S
Ti1429     Li1068    10.139   1_455     S
Ti1429     Ce1470    10.115   .     S
Ti1430     Er1151    10.092   1_455     S
Ti1430     Er1152    10.092   1_455     S
Ti1430     Li1164    10.139   1_455     S
Ti1430     Ce1471    10.115   .     S
Ti1431     Er1124    10.092   1_545     S
Ti1431     Er1123    10.092   1_545     S
Ti1431     Li1139    10.139   1_545     S
Ti1431     Ce1474    10.115   .     S
Ti1432     Er1127    10.092   1_545     S
Ti1432     Er1128    10.092   1_545     S
Ti1432     Li1140    10.139   1_545     S
Ti1432     Ce1482    10.115   .     S
Ti1433     Er600    10.092   1_655     S
Ti1433     Er599    10.092   1_655     S
Ti1433     Li610    10.139   1_655     S
Ti1433     Ce1508    10.115   .     S
Ti1434     Er818    10.092   1_565     S
Ti1434     Er817    10.092   1_565     S
Ti1434     Li824    10.139   1_565     S
Ti1434     Ce1533    10.115   .     S
Ti1435     Er1276    10.092   1_655     S
Ti1435     Er1275    10.092   1_655     S
Ti1435     Li1280    10.139   1_655     S
Ti1435     Ce1487    10.115   .     S
Ti1436     Er645    10.092   1_556     S
Ti1436     Er646    10.092   1_556     S
Ti1436     Li657    10.139   1_556     S
Ti1436     Ce1467    10.115   .     S
Ti1437     Er1086    10.092   1_544     S
Ti1437     Er1085    10.092   1_544     S
Ti1437     Li1091    10.139   1_545     S
Ti1437     Li1088    10.139   1_554     S
Ti1437     Ce1458    10.115   .     S
Ti1438     Er1081    10.092   1_445     S
Ti1438     Er1082    10.092   1_445     S
Ti1438     Li1092    10.139   1_455     S
Ti1438     Li1089    10.139   1_545     S
Ti1438     Ce1459    10.115   .     S
Ti1439     Er669    10.092   1_656     S
Ti1439     Er670    10.092   1_656     S
Ti1439     Li680    10.139   1_556     S
Ti1439     Li681    10.139   1_655     S
Ti1439     Ce1516    10.115   .     S
Ti1440     Er1077    10.092   1_454     S
Ti1440     Er1078    10.092   1_454     S
Ti1440     Li1090    10.139   1_554     S
Ti1440     Li1087    10.139   1_455     S
Ti1440     Ce1456    10.115   .     S
Ce1441     Ce1457    10.134   1_565     S
Ce1441     Ce1455    10.134   1_556     S
Ce1442     Ce1446    10.134   1_655     S
Ce1442     Ce1508    10.134   1_565     S
Ce1443     Ce1493    10.134   1_545     S
Ce1443     Ce1465    10.134   .     S
Ce1444     Ce1470    10.134   .     S
Ce1444     Ce1473    10.134   1_455     S
Ce1445     Ce1475    10.134   1_554     S
Ce1445     Ce1498    10.134   .     S
Ce1446     Ce1442    10.134   1_455     S
Ce1446     Ce1508    10.134   1_465     S
Ce1447     Ce1505    10.134   1_565     S
Ce1447     Ce1533    10.134   .     S
Ce1448     Ce1476    10.134   1_655     S
Ce1448     Ce1487    10.134   .     S
Ce1449     Ce1509    10.134   1_556     S
Ce1449     Ce1450    10.134   .     S
Ce1450     Ce1509    10.134   1_556     S
Ce1451     Ce1511    10.134   1_565     S
Ce1451     Ce1453    10.134   .     S
Ce1452     Ce1468    10.134   1_655     S
Ce1452     Ce1532    10.134   .     S
Ce1453     Ce1511    10.134   1_565     S
Ce1454     Ce1506    10.134   1_556     S
Ce1454     Ce1524    10.134   .     S
Ce1455     Ce1441    10.134   1_554     S
Ce1455     Ce1457    10.134   1_564     S
Ce1456     Ce1494    10.134   1_455     S
Ce1456     Ce1499    10.134   1_554     S
Ce1457     Ce1441    10.134   1_545     S
Ce1457     Ce1455    10.134   1_546     S
Ce1458     Ce1496    10.134   1_545     S
Ce1458     Ce1482    10.134   1_554     S
Ce1459     Ce1474    10.134   1_455     S
Ce1459     Ce1471    10.134   1_545     S
Ce1460     Ce1497    10.134   .     S
Ce1460     Ce1495    10.134   .     S
Ce1461     Ce1500    10.134   .     S
Ce1461     Ce1501    10.134   .     S
Ce1462     Ce1502    10.134   .     S
Ce1462     Ce1503    10.134   .     S
Ce1463     Ce1536    10.134   .     S
Ce1463     Ce1486    10.134   .     S
Ce1464     Ce1504    10.134   1_655     S
Ce1464     Ce1477    10.134   1_655     S
Ce1465     Ce1493    10.134   1_545     S
Ce1466     Ce1510    10.134   1_556     S
Ce1466     Ce1478    10.134   1_556     S
Ce1467     Ce1519    10.134   1_456     S
Ce1467     Ce1516    10.134   1_455     S
Ce1468     Ce1532    10.134   1_455     S
Ce1468     Ce1452    10.134   1_455     S
Ce1469     Ce1472    10.134   .     S
Ce1469     Ce1520    10.134   .     S
Ce1470     Ce1473    10.134   1_455     S
Ce1471     Ce1459    10.134   1_565     S
Ce1471     Ce1474    10.134   1_465     S
Ce1472     Ce1520    10.134   .     S
Ce1473     Ce1470    10.134   1_655     S
Ce1473     Ce1444    10.134   1_655     S
Ce1474     Ce1459    10.134   1_655     S
Ce1474     Ce1471    10.134   1_645     S
Ce1475     Ce1498    10.134   1_556     S
Ce1475     Ce1445    10.134   1_556     S
Ce1476     Ce1448    10.134   1_455     S
Ce1476     Ce1487    10.134   1_455     S
Ce1477     Ce1504    10.134   .     S
Ce1477     Ce1464    10.134   1_455     S
Ce1478     Ce1510    10.134   .     S
Ce1478     Ce1466    10.134   1_554     S
Ce1479     Ce1517    10.134   .     S
Ce1479     Ce1531    10.134   .     S
Ce1480     Ce1507    10.134   .     S
Ce1480     Ce1481    10.134   1_545     S
Ce1481     Ce1507    10.134   1_565     S
Ce1481     Ce1480    10.134   1_565     S
Ce1482     Ce1458    10.134   1_556     S
Ce1482     Ce1496    10.134   1_546     S
Ce1483     Ce1514    10.134   .     S
Ce1483     Ce1535    10.134   .     S
Ce1484     Ce1529    10.134   .     S
Ce1484     Ce1523    10.134   .     S
Ce1485     Ce1534    10.134   .     S
Ce1485     Ce1518    10.134   .     S
Ce1486     Ce1536    10.134   .     S
Ce1487     Ce1476    10.134   1_655     S
Ce1488     Ce1521    10.134   .     S
Ce1488     Ce1489    10.134   .     S
Ce1489     Ce1521    10.134   .     S
Ce1490     Ce1522    10.134   .     S
Ce1490     Ce1491    10.134   .     S
Ce1491     Ce1522    10.134   .     S
Ce1492     Ce1530    10.134   .     S
Ce1492     Ce1527    10.134   .     S
Ce1493     Ce1465    10.134   1_565     S
Ce1493     Ce1443    10.134   1_565     S
Ce1494     Ce1456    10.134   1_655     S
Ce1494     Ce1499    10.134   1_654     S
Ce1495     Ce1497    10.134   .     S
Ce1496     Ce1458    10.134   1_565     S
Ce1496     Ce1482    10.134   1_564     S
Ce1498     Ce1475    10.134   1_554     S
Ce1499     Ce1456    10.134   1_556     S
Ce1499     Ce1494    10.134   1_456     S
Ce1500     Ce1501    10.134   .     S
Ce1502     Ce1503    10.134   .     S
Ce1504     Ce1464    10.134   1_455     S
Ce1505     Ce1533    10.134   1_545     S
Ce1505     Ce1447    10.134   1_545     S
Ce1506     Ce1524    10.134   1_554     S
Ce1506     Ce1454    10.134   1_554     S
Ce1507     Ce1481    10.134   1_545     S
Ce1508     Ce1442    10.134   1_545     S
Ce1508     Ce1446    10.134   1_645     S
Ce1509     Ce1450    10.134   1_554     S
Ce1509     Ce1449    10.134   1_554     S
Ce1510     Ce1466    10.134   1_554     S
Ce1511     Ce1451    10.134   1_545     S
Ce1511     Ce1453    10.134   1_545     S
Ce1512     Ce1513    10.134   .     S
Ce1512     Ce1515    10.134   .     S
Ce1513     Ce1515    10.134   .     S
Ce1514     Ce1535    10.134   .     S
Ce1516     Ce1519    10.134   1_556     S
Ce1516     Ce1467    10.134   1_655     S
Ce1517     Ce1531    10.134   .     S
Ce1518     Ce1534    10.134   .     S
Ce1519     Ce1467    10.134   1_654     S
Ce1519     Ce1516    10.134   1_554     S
Ce1523     Ce1529    10.134   .     S
Ce1524     Ce1506    10.134   1_556     S
Ce1525     Ce1526    10.134   .     S
Ce1525     Ce1528    10.134   .     S
Ce1526     Ce1528    10.134   .     S
Ce1527     Ce1530    10.134   .     S
Ce1532     Ce1468    10.134   1_655     S
Ce1533     Ce1505    10.134   1_565     S
B1538     Be497    10.289   1_545     S
B1538     He29    10.406   1_545     S
B1539     Be540    10.289   1_565     S
B1539     He27    10.406   1_565     S
B1541     Be408    10.289   1_655     S
B1541     He45    10.406   1_655     S
B1543     Be528    10.289   1_556     S
B1543     He42    10.406   1_556     S
B1544     Be542    10.289   1_565     S
B1544     He61    10.406   1_565     S
B1548     Be552    10.289   1_565     S
B1548     He52    10.406   1_565     S
B1551     Be344    10.289   1_655     S
B1551     He38    10.406   1_655     S
B1552     Be564    10.289   1_556     S
B1552     He36    10.406   1_556     S
B1558     Be481    10.289   1_554     S
B1558     He18    10.406   1_554     S
B1562     Be402    10.289   1_655     S
B1562     He7    10.406   1_655     S
B1564     Be396    10.289   1_455     S
B1564     He17    10.406   1_455     S
B1565     Be210    10.289   1_655     S
B1565     Be211    10.289   1_565     S
B1565     He40    10.406   1_655     S
B1565     He32    10.406   1_565     S
B1566     Be342    10.289   1_655     S
B1566     He56    10.406   1_655     S
B1569     Be378    10.289   1_556     S
B1569     Be379    10.289   1_655     S
B1569     He35    10.406   1_556     S
B1569     He39    10.406   1_655     S
B1572     Be534    10.289   1_565     S
B1572     He58    10.406   1_565     S
B1573     Be223    10.289   1_556     S
B1573     Be222    10.289   1_565     S
B1573     He33    10.406   1_556     S
B1573     He37    10.406   1_565     S
B1576     Be270    10.289   1_455     S
B1576     He3    10.406   1_455     S
B1578     Be354    10.289   1_455     S
B1578     He1    10.406   1_455     S
B1580     Be558    10.289   1_556     S
B1580     He50    10.406   1_556     S
B1585     Be366    10.289   1_545     S
B1585     He2    10.406   1_545     S
B1586     Be360    10.289   1_545     S
B1586     He1    10.406   1_545     S
B1588     Be522    10.289   1_556     S
B1588     He6    10.406   1_556     S
B1589     Be420    10.289   1_545     S
B1589     He25    10.406   1_545     S
B1594     Be276    10.289   1_554     S
B1594     He3    10.406   1_554     S
B1598     Be373    10.289   1_554     S
B1598     He2    10.406   1_554     S
B1599     Be319    10.289   1_455     S
B1599     He31    10.406   1_455     S
B1600     Be427    10.289   1_554     S
B1600     He30    10.406   1_554     S
B1603     Be384    10.289   1_655     S
B1603     He43    10.406   1_655     S
B1604     Be212    10.289   1_655     S
B1604     He46    10.406   1_655     S
B1606     Be228    10.289   1_565     S
B1606     He44    10.406   1_565     S
B1607     Be380    10.289   1_556     S
B1607     He43    10.406   1_556     S
B1608     Be216    10.289   1_565     S
B1608     He46    10.406   1_565     S
B1609     Be224    10.289   1_556     S
B1609     He44    10.406   1_556     S
B1614     Be410    10.289   1_545     S
B1614     He28    10.406   1_545     S
B1616     Be498    10.289   1_545     S
B1616     He15    10.406   1_545     S
B1618     Be314    10.289   1_455     S
B1618     He69    10.406   1_455     S
B1624     Be422    10.289   1_554     S
B1624     He4    10.406   1_554     S
B1628     Be351    10.289   1_545     S
B1628     Be350    10.289   1_455     S
B1628     He72    10.406   1_545     S
B1628     He77    10.406   1_455     S
B1629     Be363    10.289   1_554     S
B1629     Be362    10.289   1_545     S
B1629     He70    10.406   1_554     S
B1629     He75    10.406   1_545     S
B1630     Be266    10.289   1_455     S
B1630     Be267    10.289   1_554     S
B1630     He76    10.406   1_455     S
B1630     He73    10.406   1_554     S
B1631     Be386    10.289   1_455     S
B1631     He68    10.406   1_455     S
B1632     Be471    10.289   1_554     S
B1632     He67    10.406   1_554     S
