data_hal
_audit_creation_date              2020-02-04
_audit_creation_method            'Pymatgen'
_symmetry_space_group_name_H-M    'P1'
_symmetry_Int_Tables_number       1
loop_
_symmetry_equiv_pos_as_xyz
  x,y,z
_cell_length_a                    62.4264
_cell_length_b                    62.4264
_cell_length_c                    62.4264
_cell_angle_alpha                 90.0
_cell_angle_beta                 90.0
_cell_angle_gamma                 90.0
loop_
_atom_site_label
_atom_site_type_symbol
_atom_site_fract_x
_atom_site_fract_y
_atom_site_fract_z
V1     V     0.4199   0.3066   0.3066
V2     V     0.5801   0.3066   0.3066
V3     V     0.3066   0.3066   0.4199
V4     V     0.3066   0.3066   0.5801
V5     V     0.4199   0.3066   0.6934
V6     V     0.5801   0.3066   0.6934
V7     V     0.6934   0.3066   0.4199
V8     V     0.6934   0.3066   0.5801
V9     V     0.4199   0.6934   0.6934
V10     V     0.5801   0.6934   0.6934
V11     V     0.6934   0.4199   0.6934
V12     V     0.6934   0.5801   0.6934
V13     V     0.6934   0.6934   0.4199
V14     V     0.6934   0.6934   0.5801
V15     V     0.6934   0.4199   0.3066
V16     V     0.6934   0.5801   0.3066
V17     V     0.4199   0.6934   0.3066
V18     V     0.5801   0.6934   0.3066
V19     V     0.3066   0.4199   0.6934
V20     V     0.3066   0.5801   0.6934
V21     V     0.3066   0.6934   0.4199
V22     V     0.3066   0.6934   0.5801
V23     V     0.3066   0.4199   0.3066
V24     V     0.3066   0.5801   0.3066
V25     V     0.4199   0.1934   0.1934
V26     V     0.5801   0.1934   0.1934
V27     V     0.4199   0.1934   0.8066
V28     V     0.5801   0.1934   0.8066
V29     V     0.6934   0.1934   0.0801
V30     V     0.6934   0.1934   0.9199
V31     V     0.6934   0.0801   0.8066
V32     V     0.6934   0.9199   0.8066
V33     V     0.6934   0.8066   0.0801
V34     V     0.6934   0.8066   0.9199
V35     V     0.4199   0.8066   0.8066
V36     V     0.5801   0.8066   0.8066
V37     V     0.4199   0.8066   0.1934
V38     V     0.5801   0.8066   0.1934
V39     V     0.6934   0.0801   0.1934
V40     V     0.6934   0.9199   0.1934
V41     V     0.3066   0.1934   0.0801
V42     V     0.3066   0.1934   0.9199
V43     V     0.3066   0.0801   0.1934
V44     V     0.3066   0.9199   0.1934
V45     V     0.3066   0.0801   0.8066
V46     V     0.3066   0.9199   0.8066
V47     V     0.3066   0.8066   0.0801
V48     V     0.3066   0.8066   0.9199
V49     V     0.1934   0.4199   0.1934
V50     V     0.1934   0.5801   0.1934
V51     V     0.8066   0.4199   0.1934
V52     V     0.8066   0.5801   0.1934
V53     V     0.0801   0.6934   0.1934
V54     V     0.9199   0.6934   0.1934
V55     V     0.1934   0.6934   0.0801
V56     V     0.1934   0.6934   0.9199
V57     V     0.1934   0.4199   0.8066
V58     V     0.1934   0.5801   0.8066
V59     V     0.8066   0.4199   0.8066
V60     V     0.8066   0.5801   0.8066
V61     V     0.8066   0.6934   0.0801
V62     V     0.8066   0.6934   0.9199
V63     V     0.0801   0.6934   0.8066
V64     V     0.9199   0.6934   0.8066
V65     V     0.1934   0.3066   0.0801
V66     V     0.1934   0.3066   0.9199
V67     V     0.0801   0.3066   0.1934
V68     V     0.9199   0.3066   0.1934
V69     V     0.0801   0.3066   0.8066
V70     V     0.9199   0.3066   0.8066
V71     V     0.8066   0.3066   0.0801
V72     V     0.8066   0.3066   0.9199
V73     V     0.1934   0.1934   0.4199
V74     V     0.1934   0.1934   0.5801
V75     V     0.8066   0.1934   0.4199
V76     V     0.8066   0.1934   0.5801
V77     V     0.0801   0.1934   0.6934
V78     V     0.9199   0.1934   0.6934
V79     V     0.0801   0.8066   0.6934
V80     V     0.9199   0.8066   0.6934
V81     V     0.8066   0.0801   0.6934
V82     V     0.8066   0.9199   0.6934
V83     V     0.8066   0.8066   0.4199
V84     V     0.8066   0.8066   0.5801
V85     V     0.1934   0.8066   0.4199
V86     V     0.1934   0.8066   0.5801
V87     V     0.1934   0.0801   0.6934
V88     V     0.1934   0.9199   0.6934
V89     V     0.1934   0.0801   0.3066
V90     V     0.1934   0.9199   0.3066
V91     V     0.0801   0.1934   0.3066
V92     V     0.9199   0.1934   0.3066
V93     V     0.0801   0.8066   0.3066
V94     V     0.9199   0.8066   0.3066
V95     V     0.8066   0.0801   0.3066
V96     V     0.8066   0.9199   0.3066
loop_
_geom_bond_atom_site_label_1
_geom_bond_atom_site_label_2
_geom_bond_distance
_geom_bond_site_symmetry_2
_ccdc_geom_bond_type
V1     V3    10.0   .     S
V1     V23    10.0   .     S
V1     V2    9.999   .     S
V1     V25    10.001   .     S
V2     V7    10.0   .     S
V2     V15    10.0   .     S
V2     V26    10.001   .     S
V3     V23    10.0   .     S
V3     V4    9.999   .     S
V3     V73    10.001   .     S
V4     V19    10.0   .     S
V4     V5    10.0   .     S
V4     V74    10.001   .     S
V5     V19    10.0   .     S
V5     V6    9.999   .     S
V5     V27    10.001   .     S
V6     V11    10.0   .     S
V6     V8    10.0   .     S
V6     V28    10.001   .     S
V7     V15    10.0   .     S
V7     V8    9.999   .     S
V7     V75    10.001   .     S
V8     V11    10.0   .     S
V8     V76    10.001   .     S
V9     V10    9.999   .     S
V9     V22    10.0   .     S
V9     V20    10.0   .     S
V9     V35    10.001   .     S
V10     V14    10.0   .     S
V10     V12    10.0   .     S
V10     V36    10.001   .     S
V11     V12    9.999   .     S
V11     V59    10.001   .     S
V12     V14    10.0   .     S
V12     V60    10.001   .     S
V13     V14    9.999   .     S
V13     V16    10.0   .     S
V13     V18    10.0   .     S
V13     V83    10.001   .     S
V14     V84    10.001   .     S
V15     V16    9.999   .     S
V15     V51    10.001   .     S
V16     V18    10.0   .     S
V16     V52    10.001   .     S
V17     V18    9.999   .     S
V17     V21    10.0   .     S
V17     V24    10.0   .     S
V17     V37    10.001   .     S
V18     V38    10.001   .     S
V19     V20    9.999   .     S
V19     V57    10.001   .     S
V20     V22    10.0   .     S
V20     V58    10.001   .     S
V21     V22    9.999   .     S
V21     V24    10.0   .     S
V21     V85    10.001   .     S
V22     V86    10.001   .     S
V23     V24    9.999   .     S
V23     V49    10.001   .     S
V24     V50    10.001   .     S
V25     V43    10.0   .     S
V25     V41    10.0   .     S
V25     V26    9.999   .     S
V26     V39    10.0   .     S
V26     V29    10.0   .     S
V27     V28    9.999   .     S
V27     V45    10.0   .     S
V27     V42    10.0   .     S
V28     V31    10.0   .     S
V28     V30    10.0   .     S
V29     V39    10.0   .     S
V29     V30    9.999   1_554     S
V29     V71    10.001   .     S
V30     V31    10.0   .     S
V30     V29    9.999   1_556     S
V30     V72    10.001   .     S
V31     V32    9.999   1_545     S
V31     V81    10.001   .     S
V32     V31    9.999   1_565     S
V32     V34    10.0   .     S
V32     V36    10.0   .     S
V32     V82    10.001   .     S
V33     V34    9.999   1_554     S
V33     V40    10.0   .     S
V33     V38    10.0   .     S
V33     V61    10.001   .     S
V34     V33    9.999   1_556     S
V34     V36    10.0   .     S
V34     V62    10.001   .     S
V35     V36    9.999   .     S
V35     V46    10.0   .     S
V35     V48    10.0   .     S
V37     V38    9.999   .     S
V37     V47    10.0   .     S
V37     V44    10.0   .     S
V38     V40    10.0   .     S
V39     V40    9.999   1_545     S
V39     V95    10.001   .     S
V40     V39    9.999   1_565     S
V40     V96    10.001   .     S
V41     V43    10.0   .     S
V41     V42    9.999   1_554     S
V41     V65    10.001   .     S
V42     V41    9.999   1_556     S
V42     V45    10.0   .     S
V42     V66    10.001   .     S
V43     V44    9.999   1_545     S
V43     V89    10.001   .     S
V44     V43    9.999   1_565     S
V44     V47    10.0   .     S
V44     V90    10.001   .     S
V45     V46    9.999   1_545     S
V45     V87    10.001   .     S
V46     V45    9.999   1_565     S
V46     V48    10.0   .     S
V46     V88    10.001   .     S
V47     V48    9.999   1_554     S
V47     V55    10.001   .     S
V48     V47    9.999   1_556     S
V48     V56    10.001   .     S
V49     V67    10.0   .     S
V49     V65    10.0   .     S
V49     V50    9.999   .     S
V50     V53    10.0   .     S
V50     V55    10.0   .     S
V51     V52    9.999   .     S
V51     V71    10.0   .     S
V51     V68    10.0   .     S
V52     V61    10.0   .     S
V52     V54    10.0   .     S
V53     V55    10.0   .     S
V53     V54    9.999   1_455     S
V53     V93    10.001   .     S
V54     V61    10.0   .     S
V54     V53    9.999   1_655     S
V54     V94    10.001   .     S
V55     V56    9.999   1_554     S
V56     V55    9.999   1_556     S
V56     V63    10.0   .     S
V56     V58    10.0   .     S
V57     V58    9.999   .     S
V57     V69    10.0   .     S
V57     V66    10.0   .     S
V58     V63    10.0   .     S
V59     V60    9.999   .     S
V59     V70    10.0   .     S
V59     V72    10.0   .     S
V60     V64    10.0   .     S
V60     V62    10.0   .     S
V61     V62    9.999   1_554     S
V62     V61    9.999   1_556     S
V62     V64    10.0   .     S
V63     V64    9.999   1_455     S
V63     V79    10.001   .     S
V64     V63    9.999   1_655     S
V64     V80    10.001   .     S
V65     V67    10.0   .     S
V65     V66    9.999   1_554     S
V66     V65    9.999   1_556     S
V66     V69    10.0   .     S
V67     V68    9.999   1_455     S
V67     V91    10.001   .     S
V68     V67    9.999   1_655     S
V68     V71    10.0   .     S
V68     V92    10.001   .     S
V69     V70    9.999   1_455     S
V69     V77    10.001   .     S
V70     V69    9.999   1_655     S
V70     V72    10.0   .     S
V70     V78    10.001   .     S
V71     V72    9.999   1_554     S
V72     V71    9.999   1_556     S
V73     V91    10.0   .     S
V73     V89    10.0   .     S
V73     V74    9.999   .     S
V74     V77    10.0   .     S
V74     V87    10.0   .     S
V75     V76    9.999   .     S
V75     V95    10.0   .     S
V75     V92    10.0   .     S
V76     V81    10.0   .     S
V76     V78    10.0   .     S
V77     V87    10.0   .     S
V77     V78    9.999   1_455     S
V78     V81    10.0   .     S
V78     V77    9.999   1_655     S
V79     V80    9.999   1_455     S
V79     V88    10.0   .     S
V79     V86    10.0   .     S
V80     V79    9.999   1_655     S
V80     V82    10.0   .     S
V80     V84    10.0   .     S
V81     V82    9.999   1_545     S
V82     V81    9.999   1_565     S
V82     V84    10.0   .     S
V83     V84    9.999   .     S
V83     V94    10.0   .     S
V83     V96    10.0   .     S
V85     V86    9.999   .     S
V85     V93    10.0   .     S
V85     V90    10.0   .     S
V86     V88    10.0   .     S
V87     V88    9.999   1_545     S
V88     V87    9.999   1_565     S
V89     V91    10.0   .     S
V89     V90    9.999   1_545     S
V90     V89    9.999   1_565     S
V90     V93    10.0   .     S
V91     V92    9.999   1_455     S
V92     V91    9.999   1_655     S
V92     V95    10.0   .     S
V93     V94    9.999   1_455     S
V94     V93    9.999   1_655     S
V94     V96    10.0   .     S
V95     V96    9.999   1_545     S
V96     V95    9.999   1_565     S
