data_het
_audit_creation_date              2020-02-04
_audit_creation_method            'Pymatgen'
_symmetry_space_group_name_H-M    'P1'
_symmetry_Int_Tables_number       1
loop_
_symmetry_equiv_pos_as_xyz
  x,y,z
_cell_length_a                    48.9898
_cell_length_b                    48.9898
_cell_length_c                    48.9898
_cell_angle_alpha                 90.0
_cell_angle_beta                 90.0
_cell_angle_gamma                 90.0
loop_
_atom_site_label
_atom_site_type_symbol
_atom_site_fract_x
_atom_site_fract_y
_atom_site_fract_z
Ti1     Ti     0.8333   0.8333   0.5833
Ti2     Ti     0.8333   0.5833   0.8333
Ti3     Ti     0.5833   0.8333   0.8333
Er4     Er     0.75   0.75   0.75
Ti5     Ti     0.1667   0.5833   0.1667
Er6     Er     0.25   0.75   0.25
Ti7     Ti     0.1667   0.1667   0.5833
Er8     Er     0.25   0.25   0.75
Ti9     Ti     0.5833   0.1667   0.1667
Er10     Er     0.75   0.25   0.25
V11     V     0.5   0.25   0.0
V12     V     0.25   0.5   0.0
Ti13     Ti     0.3333   0.3333   0.0833
V14     V     0.5   0.0   0.25
V15     V     0.25   0.0   0.5
Ti16     Ti     0.3333   0.0833   0.3333
V17     V     0.0   0.5   0.25
V18     V     0.0   0.25   0.5
Ti19     Ti     0.0833   0.3333   0.3333
Er20     Er     0.25   0.25   0.25
Ti21     Ti     0.1667   0.8333   0.4167
Ti22     Ti     0.8333   0.1667   0.4167
Ti23     Ti     0.4167   0.8333   0.1667
Ti24     Ti     0.1667   0.4167   0.8333
Ti25     Ti     0.4167   0.1667   0.8333
Ti26     Ti     0.8333   0.4167   0.1667
Ti27     Ti     0.6667   0.3333   0.9167
V28     V     0.75   0.5   0.0
Ti29     Ti     0.9167   0.3333   0.6667
V30     V     0.0   0.5   0.75
Ti31     Ti     0.0833   0.6667   0.6667
Ti32     Ti     0.9167   0.6667   0.3333
V33     V     0.0   0.75   0.5
Ti34     Ti     0.6667   0.9167   0.3333
V35     V     0.75   0.0   0.5
Ti36     Ti     0.6667   0.6667   0.0833
Ti37     Ti     0.3333   0.6667   0.9167
V38     V     0.5   0.75   0.0
Ti39     Ti     0.6667   0.0833   0.6667
Ti40     Ti     0.3333   0.9167   0.6667
V41     V     0.5   0.0   0.75
Er42     Er     0.25   0.75   0.75
Er43     Er     0.75   0.75   0.25
Er44     Er     0.75   0.25   0.75
loop_
_geom_bond_atom_site_label_1
_geom_bond_atom_site_label_2
_geom_bond_distance
_geom_bond_site_symmetry_2
_ccdc_geom_bond_type
Ti1     Er4    10.0   .     S
Ti1     V33    10.0   1_655     S
Ti1     V35    10.0   1_565     S
Ti2     Er4    10.0   .     S
Ti2     V28    10.0   1_556     S
Ti2     V30    10.0   1_655     S
Ti3     Er4    10.0   .     S
Ti3     V38    10.0   1_556     S
Ti3     V41    10.0   1_565     S
Ti5     Er6    10.0   .     S
Ti5     V12    10.0   .     S
Ti5     V17    10.0   .     S
Er6     Ti21    10.0   .     S
Er6     Ti23    10.0   .     S
Ti7     Er8    10.0   .     S
Ti7     V15    10.0   .     S
Ti7     V18    10.0   .     S
Er8     Ti24    10.0   .     S
Er8     Ti25    10.0   .     S
Ti9     Er10    10.0   .     S
Ti9     V11    10.0   .     S
Ti9     V14    10.0   .     S
Er10     Ti22    10.0   .     S
Er10     Ti26    10.0   .     S
V11     Ti25    10.0   1_554     S
V11     Ti13    10.0   .     S
V11     Ti27    10.0   1_554     S
V12     Ti24    10.0   1_554     S
V12     Ti13    10.0   .     S
V12     Ti37    10.0   1_554     S
Ti13     Er20    10.0   .     S
V14     Ti23    10.0   1_545     S
V14     Ti16    10.0   .     S
V14     Ti34    10.0   1_545     S
V15     Ti21    10.0   1_545     S
V15     Ti16    10.0   .     S
V15     Ti40    10.0   1_545     S
Ti16     Er20    10.0   .     S
V17     Ti26    10.0   1_455     S
V17     Ti19    10.0   .     S
V17     Ti32    10.0   1_455     S
V18     Ti22    10.0   1_455     S
V18     Ti19    10.0   .     S
V18     Ti29    10.0   1_455     S
Ti19     Er20    10.0   .     S
Ti21     V15    10.0   1_565     S
Ti21     V33    10.0   .     S
Ti22     V18    10.0   1_655     S
Ti22     V35    10.0   .     S
Ti23     V14    10.0   1_565     S
Ti23     V38    10.0   .     S
Ti24     V12    10.0   1_556     S
Ti24     V30    10.0   .     S
Ti25     V11    10.0   1_556     S
Ti25     V41    10.0   .     S
Ti26     V17    10.0   1_655     S
Ti26     V28    10.0   .     S
Ti27     V11    10.0   1_556     S
Ti27     Er44    10.0   .     S
Ti27     V28    10.0   1_556     S
V28     Ti2    10.0   1_554     S
V28     Ti36    10.0   .     S
V28     Ti27    10.0   1_554     S
Ti29     V18    10.0   1_655     S
Ti29     Er44    10.0   .     S
Ti29     V30    10.0   1_655     S
V30     Ti2    10.0   1_455     S
V30     Ti31    10.0   .     S
V30     Ti29    10.0   1_455     S
Ti31     Er42    10.0   .     S
Ti31     V33    10.0   .     S
Ti32     V17    10.0   1_655     S
Ti32     Er43    10.0   .     S
Ti32     V33    10.0   1_655     S
V33     Ti1    10.0   1_455     S
V33     Ti32    10.0   1_455     S
Ti34     V14    10.0   1_565     S
Ti34     Er43    10.0   .     S
Ti34     V35    10.0   1_565     S
V35     Ti1    10.0   1_545     S
V35     Ti39    10.0   .     S
V35     Ti34    10.0   1_545     S
Ti36     Er43    10.0   .     S
Ti36     V38    10.0   .     S
Ti37     V12    10.0   1_556     S
Ti37     Er42    10.0   .     S
Ti37     V38    10.0   1_556     S
V38     Ti3    10.0   1_554     S
V38     Ti37    10.0   1_554     S
Ti39     Er44    10.0   .     S
Ti39     V41    10.0   .     S
Ti40     V15    10.0   1_565     S
Ti40     Er42    10.0   .     S
Ti40     V41    10.0   1_565     S
V41     Ti3    10.0   1_545     S
V41     Ti40    10.0   1_545     S
