data_hmca
_audit_creation_date              2020-02-04
_audit_creation_method            'Pymatgen'
_symmetry_space_group_name_H-M    'P1'
_symmetry_Int_Tables_number       1
loop_
_symmetry_equiv_pos_as_xyz
  x,y,z
_cell_length_a                    124.1569
_cell_length_b                    124.1569
_cell_length_c                    124.1569
_cell_angle_alpha                 90.0
_cell_angle_beta                 90.0
_cell_angle_gamma                 90.0
loop_
_atom_site_label
_atom_site_type_symbol
_atom_site_fract_x
_atom_site_fract_y
_atom_site_fract_z
Er1     Er     0.7332   0.8238   0.8238
Er2     Er     0.8238   0.7332   0.8238
Er3     Er     0.8238   0.8238   0.7332
V4     V     0.8563   0.8563   0.7993
V5     V     0.8563   0.7993   0.8563
V6     V     0.7993   0.8563   0.8563
Er7     Er     0.6762   0.7332   0.6762
Er8     Er     0.6762   0.8238   0.7668
Er9     Er     0.7668   0.8238   0.6762
V10     V     0.7007   0.8563   0.6437
V11     V     0.6437   0.8563   0.7007
V12     V     0.6437   0.7993   0.6437
Er13     Er     0.6762   0.6762   0.7332
Er14     Er     0.6762   0.7668   0.8238
Er15     Er     0.7668   0.6762   0.8238
V16     V     0.7007   0.6437   0.8563
V17     V     0.6437   0.6437   0.7993
V18     V     0.6437   0.7007   0.8563
Er19     Er     0.7332   0.6762   0.6762
Er20     Er     0.8238   0.7668   0.6762
Er21     Er     0.8238   0.6762   0.7668
V22     V     0.8563   0.6437   0.7007
V23     V     0.8563   0.7007   0.6437
V24     V     0.7993   0.6437   0.6437
Er25     Er     0.6762   0.6762   0.2668
Er26     Er     0.6762   0.7668   0.1762
Er27     Er     0.7668   0.6762   0.1762
V28     V     0.7007   0.6437   0.1437
V29     V     0.6437   0.7007   0.1437
V30     V     0.6437   0.6437   0.2007
Er31     Er     0.6762   0.7332   0.3238
Er32     Er     0.7668   0.8238   0.3238
Er33     Er     0.6762   0.8238   0.2332
V34     V     0.7007   0.8563   0.3563
V35     V     0.6437   0.7993   0.3563
V36     V     0.6437   0.8563   0.2993
Er37     Er     0.8238   0.7332   0.1762
Er38     Er     0.7332   0.8238   0.1762
Er39     Er     0.8238   0.8238   0.2668
V40     V     0.7993   0.8563   0.1437
V41     V     0.8563   0.7993   0.1437
V42     V     0.8563   0.8563   0.2007
Er43     Er     0.7332   0.6762   0.3238
Er44     Er     0.8238   0.7668   0.3238
Er45     Er     0.8238   0.6762   0.2332
V46     V     0.8563   0.7007   0.3563
V47     V     0.7993   0.6437   0.3563
V48     V     0.8563   0.6437   0.2993
Er49     Er     0.6762   0.2668   0.6762
Er50     Er     0.7668   0.1762   0.6762
Er51     Er     0.6762   0.1762   0.7668
V52     V     0.6437   0.1437   0.7007
V53     V     0.7007   0.1437   0.6437
V54     V     0.6437   0.2007   0.6437
Er55     Er     0.6762   0.3238   0.7332
Er56     Er     0.7668   0.3238   0.8238
Er57     Er     0.6762   0.2332   0.8238
V58     V     0.7007   0.3563   0.8563
V59     V     0.6437   0.3563   0.7993
V60     V     0.6437   0.2993   0.8563
Er61     Er     0.7332   0.1762   0.8238
Er62     Er     0.8238   0.1762   0.7332
Er63     Er     0.8238   0.2668   0.8238
V64     V     0.8563   0.1437   0.7993
V65     V     0.7993   0.1437   0.8563
V66     V     0.8563   0.2007   0.8563
Er67     Er     0.7332   0.3238   0.6762
Er68     Er     0.8238   0.3238   0.7668
Er69     Er     0.8238   0.2332   0.6762
V70     V     0.8563   0.3563   0.7007
V71     V     0.7993   0.3563   0.6437
V72     V     0.8563   0.2993   0.6437
Er73     Er     0.2668   0.6762   0.6762
Er74     Er     0.1762   0.7668   0.6762
Er75     Er     0.1762   0.6762   0.7668
V76     V     0.1437   0.6437   0.7007
V77     V     0.1437   0.7007   0.6437
V78     V     0.2007   0.6437   0.6437
Er79     Er     0.3238   0.7332   0.6762
Er80     Er     0.3238   0.8238   0.7668
Er81     Er     0.2332   0.8238   0.6762
V82     V     0.3563   0.8563   0.7007
V83     V     0.3563   0.7993   0.6437
V84     V     0.2993   0.8563   0.6437
Er85     Er     0.1762   0.7332   0.8238
Er86     Er     0.1762   0.8238   0.7332
Er87     Er     0.2668   0.8238   0.8238
V88     V     0.1437   0.8563   0.7993
V89     V     0.1437   0.7993   0.8563
V90     V     0.2007   0.8563   0.8563
Er91     Er     0.3238   0.6762   0.7332
Er92     Er     0.3238   0.7668   0.8238
Er93     Er     0.2332   0.6762   0.8238
V94     V     0.3563   0.6437   0.7993
V95     V     0.3563   0.7007   0.8563
V96     V     0.2993   0.6437   0.8563
Er97     Er     0.6762   0.3238   0.2668
Er98     Er     0.7668   0.3238   0.1762
Er99     Er     0.6762   0.2332   0.1762
V100     V     0.7007   0.3563   0.1437
V101     V     0.6437   0.3563   0.2007
V102     V     0.6437   0.2993   0.1437
Er103     Er     0.6762   0.2668   0.3238
Er104     Er     0.7668   0.1762   0.3238
Er105     Er     0.6762   0.1762   0.2332
V106     V     0.7007   0.1437   0.3563
V107     V     0.6437   0.1437   0.2993
V108     V     0.6437   0.2007   0.3563
Er109     Er     0.7332   0.1762   0.1762
Er110     Er     0.8238   0.2668   0.1762
Er111     Er     0.8238   0.1762   0.2668
V112     V     0.7993   0.1437   0.1437
V113     V     0.8563   0.1437   0.2007
V114     V     0.8563   0.2007   0.1437
Er115     Er     0.7332   0.3238   0.3238
Er116     Er     0.8238   0.2332   0.3238
Er117     Er     0.8238   0.3238   0.2332
V118     V     0.7993   0.3563   0.3563
V119     V     0.8563   0.3563   0.2993
V120     V     0.8563   0.2993   0.3563
Ce121     Ce     0.3458   0.4028   0.9028
Ce122     Ce     0.4028   0.3458   0.9028
Ce123     Ce     0.4028   0.4028   0.8458
Ce124     Ce     0.4028   0.3458   0.0972
Ce125     Ce     0.3458   0.4028   0.0972
Ce126     Ce     0.4028   0.4028   0.1542
Ce127     Ce     0.4028   0.6542   0.9028
Ce128     Ce     0.3458   0.5972   0.9028
Ce129     Ce     0.4028   0.5972   0.8458
Ce130     Ce     0.5972   0.3458   0.9028
Ce131     Ce     0.6542   0.4028   0.9028
Ce132     Ce     0.5972   0.4028   0.8458
Ti133     Ti     0.4597   0.4597   0.8459
Ti134     Ti     0.4597   0.5403   0.8459
Ti135     Ti     0.5403   0.4597   0.8459
Ti136     Ti     0.5403   0.5403   0.8459
Ce137     Ce     0.6542   0.5972   0.9028
Ce138     Ce     0.5972   0.6542   0.9028
Ce139     Ce     0.5972   0.5972   0.8458
Ti140     Ti     0.5403   0.3459   0.9597
Ti141     Ti     0.5403   0.3459   0.0403
Ti142     Ti     0.4597   0.3459   0.9597
Ti143     Ti     0.4597   0.3459   0.0403
Ce144     Ce     0.6542   0.4028   0.0972
Ce145     Ce     0.5972   0.3458   0.0972
Ce146     Ce     0.5972   0.4028   0.1542
Ti147     Ti     0.3459   0.5403   0.9597
Ti148     Ti     0.3459   0.5403   0.0403
Ti149     Ti     0.3459   0.4597   0.9597
Ti150     Ti     0.3459   0.4597   0.0403
Ce151     Ce     0.3458   0.5972   0.0972
Ce152     Ce     0.4028   0.6542   0.0972
Ce153     Ce     0.4028   0.5972   0.1542
Ti154     Ti     0.5403   0.6541   0.9597
Ti155     Ti     0.5403   0.6541   0.0403
Ti156     Ti     0.4597   0.6541   0.0403
Ti157     Ti     0.4597   0.6541   0.9597
Ti158     Ti     0.6541   0.5403   0.9597
Ti159     Ti     0.6541   0.5403   0.0403
Ti160     Ti     0.6541   0.4597   0.9597
Ti161     Ti     0.6541   0.4597   0.0403
Ti162     Ti     0.4597   0.4597   0.1541
Ti163     Ti     0.5403   0.4597   0.1541
Ti164     Ti     0.4597   0.5403   0.1541
Ti165     Ti     0.5403   0.5403   0.1541
Ce166     Ce     0.5972   0.6542   0.0972
Ce167     Ce     0.6542   0.5972   0.0972
Ce168     Ce     0.5972   0.5972   0.1542
Er169     Er     0.3238   0.6762   0.2668
Er170     Er     0.3238   0.7668   0.1762
Er171     Er     0.2332   0.6762   0.1762
V172     V     0.3563   0.7007   0.1437
V173     V     0.3563   0.6437   0.2007
V174     V     0.2993   0.6437   0.1437
Er175     Er     0.2668   0.6762   0.3238
Er176     Er     0.1762   0.7668   0.3238
Er177     Er     0.1762   0.6762   0.2332
V178     V     0.1437   0.7007   0.3563
V179     V     0.1437   0.6437   0.2993
V180     V     0.2007   0.6437   0.3563
Er181     Er     0.1762   0.7332   0.1762
Er182     Er     0.1762   0.8238   0.2668
Er183     Er     0.2668   0.8238   0.1762
V184     V     0.1437   0.7993   0.1437
V185     V     0.2007   0.8563   0.1437
V186     V     0.1437   0.8563   0.2007
Er187     Er     0.3238   0.7332   0.3238
Er188     Er     0.3238   0.8238   0.2332
Er189     Er     0.2332   0.8238   0.3238
V190     V     0.3563   0.7993   0.3563
V191     V     0.2993   0.8563   0.3563
V192     V     0.3563   0.8563   0.2993
Ce193     Ce     0.4028   0.8458   0.4028
Ce194     Ce     0.3458   0.9028   0.4028
Ce195     Ce     0.4028   0.9028   0.3458
Ce196     Ce     0.3458   0.0972   0.4028
Ce197     Ce     0.4028   0.0972   0.3458
Ce198     Ce     0.4028   0.1542   0.4028
Ce199     Ce     0.6542   0.9028   0.4028
Ce200     Ce     0.5972   0.9028   0.3458
Ce201     Ce     0.5972   0.8458   0.4028
Ti202     Ti     0.5403   0.9597   0.3459
Ti203     Ti     0.5403   0.0403   0.3459
Ti204     Ti     0.4597   0.0403   0.3459
Ti205     Ti     0.4597   0.9597   0.3459
Ce206     Ce     0.6542   0.0972   0.4028
Ce207     Ce     0.5972   0.0972   0.3458
Ce208     Ce     0.5972   0.1542   0.4028
Ce209     Ce     0.4028   0.8458   0.5972
Ce210     Ce     0.4028   0.9028   0.6542
Ce211     Ce     0.3458   0.9028   0.5972
Ti212     Ti     0.4597   0.8459   0.5403
Ti213     Ti     0.4597   0.8459   0.4597
Ti214     Ti     0.5403   0.8459   0.4597
Ti215     Ti     0.5403   0.8459   0.5403
Ce216     Ce     0.5972   0.8458   0.5972
Ce217     Ce     0.6542   0.9028   0.5972
Ce218     Ce     0.5972   0.9028   0.6542
Ti219     Ti     0.3459   0.9597   0.5403
Ti220     Ti     0.3459   0.0403   0.5403
Ti221     Ti     0.3459   0.9597   0.4597
Ti222     Ti     0.3459   0.0403   0.4597
Ce223     Ce     0.3458   0.0972   0.5972
Ce224     Ce     0.4028   0.0972   0.6542
Ce225     Ce     0.4028   0.1542   0.5972
Ti226     Ti     0.6541   0.9597   0.5403
Ti227     Ti     0.6541   0.0403   0.5403
Ti228     Ti     0.6541   0.0403   0.4597
Ti229     Ti     0.6541   0.9597   0.4597
Ti230     Ti     0.5403   0.9597   0.6541
Ti231     Ti     0.5403   0.0403   0.6541
Ti232     Ti     0.4597   0.0403   0.6541
Ti233     Ti     0.4597   0.9597   0.6541
Ti234     Ti     0.5403   0.1541   0.4597
Ti235     Ti     0.4597   0.1541   0.4597
Ti236     Ti     0.4597   0.1541   0.5403
Ti237     Ti     0.5403   0.1541   0.5403
Ce238     Ce     0.6542   0.0972   0.5972
Ce239     Ce     0.5972   0.0972   0.6542
Ce240     Ce     0.5972   0.1542   0.5972
Er241     Er     0.3238   0.2668   0.6762
Er242     Er     0.3238   0.1762   0.7668
Er243     Er     0.2332   0.1762   0.6762
V244     V     0.3563   0.1437   0.7007
V245     V     0.3563   0.2007   0.6437
V246     V     0.2993   0.1437   0.6437
Er247     Er     0.2668   0.3238   0.6762
Er248     Er     0.1762   0.3238   0.7668
Er249     Er     0.1762   0.2332   0.6762
V250     V     0.1437   0.3563   0.7007
V251     V     0.1437   0.2993   0.6437
V252     V     0.2007   0.3563   0.6437
Er253     Er     0.1762   0.1762   0.7332
Er254     Er     0.2668   0.1762   0.8238
Er255     Er     0.1762   0.2668   0.8238
V256     V     0.1437   0.1437   0.7993
V257     V     0.1437   0.2007   0.8563
V258     V     0.2007   0.1437   0.8563
Er259     Er     0.3238   0.3238   0.7332
Er260     Er     0.2332   0.3238   0.8238
Er261     Er     0.3238   0.2332   0.8238
V262     V     0.3563   0.3563   0.7993
V263     V     0.3563   0.2993   0.8563
V264     V     0.2993   0.3563   0.8563
Ce265     Ce     0.9028   0.3458   0.4028
Ce266     Ce     0.9028   0.4028   0.3458
Ce267     Ce     0.8458   0.4028   0.4028
Ce268     Ce     0.0972   0.3458   0.4028
Ce269     Ce     0.0972   0.4028   0.3458
Ce270     Ce     0.1542   0.4028   0.4028
Ti271     Ti     0.9597   0.3459   0.5403
Ti272     Ti     0.0403   0.3459   0.5403
Ti273     Ti     0.0403   0.3459   0.4597
Ti274     Ti     0.9597   0.3459   0.4597
Ce275     Ce     0.0972   0.4028   0.6542
Ce276     Ce     0.0972   0.3458   0.5972
Ce277     Ce     0.1542   0.4028   0.5972
Ce278     Ce     0.9028   0.3458   0.5972
Ce279     Ce     0.9028   0.4028   0.6542
Ce280     Ce     0.8458   0.4028   0.5972
Ce281     Ce     0.8458   0.5972   0.4028
Ce282     Ce     0.9028   0.6542   0.4028
Ce283     Ce     0.9028   0.5972   0.3458
Ti284     Ti     0.8459   0.4597   0.5403
Ti285     Ti     0.8459   0.4597   0.4597
Ti286     Ti     0.8459   0.5403   0.4597
Ti287     Ti     0.8459   0.5403   0.5403
Ce288     Ce     0.9028   0.6542   0.5972
Ce289     Ce     0.9028   0.5972   0.6542
Ce290     Ce     0.8458   0.5972   0.5972
Ti291     Ti     0.0403   0.4597   0.3459
Ti292     Ti     0.9597   0.4597   0.3459
Ti293     Ti     0.9597   0.5403   0.3459
Ti294     Ti     0.0403   0.5403   0.3459
Ce295     Ce     0.0972   0.6542   0.4028
Ce296     Ce     0.0972   0.5972   0.3458
Ce297     Ce     0.1542   0.5972   0.4028
Ti298     Ti     0.9597   0.6541   0.5403
Ti299     Ti     0.0403   0.6541   0.5403
Ti300     Ti     0.9597   0.6541   0.4597
Ti301     Ti     0.0403   0.6541   0.4597
Ti302     Ti     0.9597   0.5403   0.6541
Ti303     Ti     0.0403   0.5403   0.6541
Ti304     Ti     0.0403   0.4597   0.6541
Ti305     Ti     0.9597   0.4597   0.6541
Ti306     Ti     0.1541   0.4597   0.5403
Ti307     Ti     0.1541   0.4597   0.4597
Ti308     Ti     0.1541   0.5403   0.4597
Ti309     Ti     0.1541   0.5403   0.5403
Ce310     Ce     0.0972   0.6542   0.5972
Ce311     Ce     0.0972   0.5972   0.6542
Ce312     Ce     0.1542   0.5972   0.5972
Er313     Er     0.1762   0.2668   0.1762
Er314     Er     0.2668   0.1762   0.1762
Er315     Er     0.1762   0.1762   0.2668
V316     V     0.1437   0.1437   0.2007
V317     V     0.2007   0.1437   0.1437
V318     V     0.1437   0.2007   0.1437
Er319     Er     0.3238   0.2668   0.3238
Er320     Er     0.2332   0.1762   0.3238
Er321     Er     0.3238   0.1762   0.2332
V322     V     0.3563   0.2007   0.3563
V323     V     0.3563   0.1437   0.2993
V324     V     0.2993   0.1437   0.3563
Er325     Er     0.3238   0.3238   0.2668
Er326     Er     0.3238   0.2332   0.1762
Er327     Er     0.2332   0.3238   0.1762
V328     V     0.3563   0.3563   0.2007
V329     V     0.2993   0.3563   0.1437
V330     V     0.3563   0.2993   0.1437
Er331     Er     0.2668   0.3238   0.3238
Er332     Er     0.1762   0.3238   0.2332
Er333     Er     0.1762   0.2332   0.3238
V334     V     0.1437   0.2993   0.3563
V335     V     0.1437   0.3563   0.2993
V336     V     0.2007   0.3563   0.3563
Ce337     Ce     0.9028   0.8458   0.9028
Ce338     Ce     0.8458   0.9028   0.9028
Ce339     Ce     0.9028   0.9028   0.8458
Ce340     Ce     0.9028   0.1542   0.9028
Ce341     Ce     0.8458   0.0972   0.9028
Ce342     Ce     0.9028   0.0972   0.8458
Ce343     Ce     0.1542   0.9028   0.9028
Ce344     Ce     0.0972   0.8458   0.9028
Ce345     Ce     0.0972   0.9028   0.8458
Ti346     Ti     0.9597   0.9597   0.8459
Ti347     Ti     0.9597   0.0403   0.8459
Ti348     Ti     0.0403   0.9597   0.8459
Ti349     Ti     0.0403   0.0403   0.8459
Ce350     Ce     0.0972   0.0972   0.8458
Ce351     Ce     0.1542   0.0972   0.9028
Ce352     Ce     0.0972   0.1542   0.9028
Ce353     Ce     0.9028   0.9028   0.1542
Ce354     Ce     0.9028   0.8458   0.0972
Ce355     Ce     0.8458   0.9028   0.0972
Ti356     Ti     0.9597   0.8459   0.0403
Ti357     Ti     0.9597   0.8459   0.9597
Ti358     Ti     0.0403   0.8459   0.9597
Ti359     Ti     0.0403   0.8459   0.0403
Ce360     Ce     0.0972   0.8458   0.0972
Ce361     Ce     0.1542   0.9028   0.0972
Ce362     Ce     0.0972   0.9028   0.1542
Ti363     Ti     0.9597   0.1541   0.9597
Ti364     Ti     0.9597   0.1541   0.0403
Ti365     Ti     0.0403   0.1541   0.9597
Ti366     Ti     0.0403   0.1541   0.0403
Ti367     Ti     0.1541   0.9597   0.0403
Ti368     Ti     0.1541   0.9597   0.9597
Ti369     Ti     0.1541   0.0403   0.9597
Ti370     Ti     0.1541   0.0403   0.0403
Ti371     Ti     0.9597   0.9597   0.1541
Ti372     Ti     0.9597   0.0403   0.1541
Ti373     Ti     0.0403   0.9597   0.1541
Ti374     Ti     0.0403   0.0403   0.1541
Ce375     Ce     0.1542   0.0972   0.0972
Ce376     Ce     0.0972   0.1542   0.0972
Ce377     Ce     0.0972   0.0972   0.1542
Ti378     Ti     0.8459   0.9597   0.0403
Ti379     Ti     0.8459   0.9597   0.9597
Ti380     Ti     0.8459   0.0403   0.9597
Ti381     Ti     0.8459   0.0403   0.0403
Ce382     Ce     0.8458   0.0972   0.0972
Ce383     Ce     0.9028   0.1542   0.0972
Ce384     Ce     0.9028   0.0972   0.1542
loop_
_geom_bond_atom_site_label_1
_geom_bond_atom_site_label_2
_geom_bond_distance
_geom_bond_site_symmetry_2
_ccdc_geom_bond_type
Er1     V6    9.999   .     S
Er1     Er14    10.001   .     S
Er1     Er8    10.001   .     S
Er2     V5    9.999   .     S
Er2     Er21    10.001   .     S
Er2     Er15    10.001   .     S
Er3     V4    9.999   .     S
Er3     Er9    10.001   .     S
Er3     Er20    10.001   .     S
V4     V6    10.0   .     S
V4     V5    10.0   .     S
V4     Ce339    10.001   .     S
V5     V6    10.0   .     S
V5     Ce337    10.001   .     S
V6     Ce338    10.001   .     S
Er7     V12    9.999   .     S
Er7     Er13    10.001   .     S
Er7     Er19    10.001   .     S
Er8     V11    9.999   .     S
Er8     Er14    10.001   .     S
Er9     V10    9.999   .     S
Er9     Er20    10.001   .     S
V10     V11    10.0   .     S
V10     V12    10.0   .     S
V10     Ce217    10.001   .     S
V11     V12    10.0   .     S
V11     Ce218    10.001   .     S
V12     Ce216    10.001   .     S
Er13     V17    9.999   .     S
Er13     Er19    10.001   .     S
Er14     V18    9.999   .     S
Er15     V16    9.999   .     S
Er15     Er21    10.001   .     S
V16     V17    10.0   .     S
V16     V18    10.0   .     S
V16     Ce137    10.001   .     S
V17     V18    10.0   .     S
V17     Ce139    10.001   .     S
V18     Ce138    10.001   .     S
Er19     V24    9.999   .     S
Er20     V23    9.999   .     S
Er21     V22    9.999   .     S
V22     V24    10.0   .     S
V22     V23    10.0   .     S
V22     Ce289    10.001   .     S
V23     V24    10.0   .     S
V23     Ce288    10.001   .     S
V24     Ce290    10.001   .     S
Er25     V30    9.999   .     S
Er25     Er31    10.001   .     S
Er25     Er43    10.001   .     S
Er26     V29    9.999   .     S
Er26     Er33    10.001   .     S
Er26     Er38    10.001   .     S
Er27     V28    9.999   .     S
Er27     Er37    10.001   .     S
Er27     Er45    10.001   .     S
V28     V30    10.0   .     S
V28     V29    10.0   .     S
V28     Ce167    10.001   .     S
V29     V30    10.0   .     S
V29     Ce166    10.001   .     S
V30     Ce168    10.001   .     S
Er31     V35    9.999   .     S
Er31     Er43    10.001   .     S
Er32     V34    9.999   .     S
Er32     Er39    10.001   .     S
Er32     Er44    10.001   .     S
Er33     V36    9.999   .     S
Er33     Er38    10.001   .     S
V34     V36    10.0   .     S
V34     V35    10.0   .     S
V34     Ce199    10.001   .     S
V35     V36    10.0   .     S
V35     Ce201    10.001   .     S
V36     Ce200    10.001   .     S
Er37     V41    9.999   .     S
Er37     Er45    10.001   .     S
Er38     V40    9.999   .     S
Er39     V42    9.999   .     S
Er39     Er44    10.001   .     S
V40     V41    10.0   .     S
V40     V42    10.0   .     S
V40     Ce355    10.001   .     S
V41     V42    10.0   .     S
V41     Ce354    10.001   .     S
V42     Ce353    10.001   .     S
Er43     V47    9.999   .     S
Er44     V46    9.999   .     S
Er45     V48    9.999   .     S
V46     V48    10.0   .     S
V46     V47    10.0   .     S
V46     Ce282    10.001   .     S
V47     V48    10.0   .     S
V47     Ce281    10.001   .     S
V48     Ce283    10.001   .     S
Er49     V54    9.999   .     S
Er49     Er55    10.001   .     S
Er49     Er67    10.001   .     S
Er50     V53    9.999   .     S
Er50     Er62    10.001   .     S
Er50     Er69    10.001   .     S
Er51     V52    9.999   .     S
Er51     Er57    10.001   .     S
Er51     Er61    10.001   .     S
V52     V54    10.0   .     S
V52     V53    10.0   .     S
V52     Ce239    10.001   .     S
V53     V54    10.0   .     S
V53     Ce238    10.001   .     S
V54     Ce240    10.001   .     S
Er55     V59    9.999   .     S
Er55     Er67    10.001   .     S
Er56     V58    9.999   .     S
Er56     Er63    10.001   .     S
Er56     Er68    10.001   .     S
Er57     V60    9.999   .     S
Er57     Er61    10.001   .     S
V58     V59    10.0   .     S
V58     V60    10.0   .     S
V58     Ce131    10.001   .     S
V59     V60    10.0   .     S
V59     Ce132    10.001   .     S
V60     Ce130    10.001   .     S
Er61     V65    9.999   .     S
Er62     V64    9.999   .     S
Er62     Er69    10.001   .     S
Er63     V66    9.999   .     S
Er63     Er68    10.001   .     S
V64     V66    10.0   .     S
V64     V65    10.0   .     S
V64     Ce342    10.001   .     S
V65     V66    10.0   .     S
V65     Ce341    10.001   .     S
V66     Ce340    10.001   .     S
Er67     V71    9.999   .     S
Er68     V70    9.999   .     S
Er69     V72    9.999   .     S
V70     V72    10.0   .     S
V70     V71    10.0   .     S
V70     Ce279    10.001   .     S
V71     V72    10.0   .     S
V71     Ce280    10.001   .     S
V72     Ce278    10.001   .     S
Er73     V78    9.999   .     S
Er73     Er79    10.001   .     S
Er73     Er91    10.001   .     S
Er74     V77    9.999   .     S
Er74     Er81    10.001   .     S
Er74     Er86    10.001   .     S
Er75     V76    9.999   .     S
Er75     Er85    10.001   .     S
Er75     Er93    10.001   .     S
V76     V77    10.0   .     S
V76     V78    10.0   .     S
V76     Ce311    10.001   .     S
V77     V78    10.0   .     S
V77     Ce310    10.001   .     S
V78     Ce312    10.001   .     S
Er79     V83    9.999   .     S
Er79     Er91    10.001   .     S
Er80     V82    9.999   .     S
Er80     Er87    10.001   .     S
Er80     Er92    10.001   .     S
Er81     V84    9.999   .     S
Er81     Er86    10.001   .     S
V82     V83    10.0   .     S
V82     V84    10.0   .     S
V82     Ce210    10.001   .     S
V83     V84    10.0   .     S
V83     Ce209    10.001   .     S
V84     Ce211    10.001   .     S
Er85     V89    9.999   .     S
Er85     Er93    10.001   .     S
Er86     V88    9.999   .     S
Er87     V90    9.999   .     S
Er87     Er92    10.001   .     S
V88     V89    10.0   .     S
V88     V90    10.0   .     S
V88     Ce345    10.001   .     S
V89     V90    10.0   .     S
V89     Ce344    10.001   .     S
V90     Ce343    10.001   .     S
Er91     V94    9.999   .     S
Er92     V95    9.999   .     S
Er93     V96    9.999   .     S
V94     V95    10.0   .     S
V94     V96    10.0   .     S
V94     Ce129    10.001   .     S
V95     V96    10.0   .     S
V95     Ce127    10.001   .     S
V96     Ce128    10.001   .     S
Er97     V101    9.999   .     S
Er97     Er103    10.001   .     S
Er97     Er115    10.001   .     S
Er98     V100    9.999   .     S
Er98     Er110    10.001   .     S
Er98     Er117    10.001   .     S
Er99     V102    9.999   .     S
Er99     Er109    10.001   .     S
Er99     Er105    10.001   .     S
V100     V101    10.0   .     S
V100     V102    10.0   .     S
V100     Ce144    10.001   .     S
V101     V102    10.0   .     S
V101     Ce146    10.001   .     S
V102     Ce145    10.001   .     S
Er103     V108    9.999   .     S
Er103     Er115    10.001   .     S
Er104     V106    9.999   .     S
Er104     Er111    10.001   .     S
Er104     Er116    10.001   .     S
Er105     V107    9.999   .     S
Er105     Er109    10.001   .     S
V106     V107    10.0   .     S
V106     V108    10.0   .     S
V106     Ce206    10.001   .     S
V107     V108    10.0   .     S
V107     Ce207    10.001   .     S
V108     Ce208    10.001   .     S
Er109     V112    9.999   .     S
Er110     V114    9.999   .     S
Er110     Er117    10.001   .     S
Er111     V113    9.999   .     S
Er111     Er116    10.001   .     S
V112     V113    10.0   .     S
V112     V114    10.0   .     S
V112     Ce382    10.001   .     S
V113     V114    10.0   .     S
V113     Ce384    10.001   .     S
V114     Ce383    10.001   .     S
Er115     V118    9.999   .     S
Er116     V120    9.999   .     S
Er117     V119    9.999   .     S
V118     V119    10.0   .     S
V118     V120    10.0   .     S
V118     Ce267    10.001   .     S
V119     V120    10.0   .     S
V119     Ce266    10.001   .     S
V120     Ce265    10.001   .     S
Ce121     Ti149    10.0   .     S
Ce121     Ce123    10.001   .     S
Ce121     Ce122    10.001   .     S
Ce121     V264    10.001   .     S
Ce122     Ti142    10.0   .     S
Ce122     Ce123    10.001   .     S
Ce122     V263    10.001   .     S
Ce123     Ti133    10.0   .     S
Ce123     V262    10.001   .     S
Ce124     Ti143    10.0   .     S
Ce124     Ce126    10.001   .     S
Ce124     Ce125    10.001   .     S
Ce124     V330    10.001   .     S
Ce125     Ti150    10.0   .     S
Ce125     Ce126    10.001   .     S
Ce125     V329    10.001   .     S
Ce126     Ti162    10.0   .     S
Ce126     V328    10.001   .     S
Ce127     Ti157    10.0   .     S
Ce127     Ce129    10.001   .     S
Ce127     Ce128    10.001   .     S
Ce128     Ti147    10.0   .     S
Ce128     Ce129    10.001   .     S
Ce129     Ti134    10.0   .     S
Ce130     Ti140    10.0   .     S
Ce130     Ce132    10.001   .     S
Ce130     Ce131    10.001   .     S
Ce131     Ti160    10.0   .     S
Ce131     Ce132    10.001   .     S
Ce132     Ti135    10.0   .     S
Ti133     Ti134    10.0   .     S
Ti133     Ti135    10.0   .     S
Ti134     Ti136    10.0   .     S
Ti135     Ti136    10.0   .     S
Ti136     Ce139    10.0   .     S
Ce137     Ti158    10.0   .     S
Ce137     Ce139    10.001   .     S
Ce137     Ce138    10.001   .     S
Ce138     Ti154    10.0   .     S
Ce138     Ce139    10.001   .     S
Ti140     Ti141    10.0   1_556     S
Ti140     Ti142    10.0   .     S
Ti141     Ti140    10.0   1_554     S
Ti141     Ti143    10.0   .     S
Ti141     Ce145    10.0   .     S
Ti142     Ti143    10.0   1_556     S
Ti143     Ti142    10.0   1_554     S
Ce144     Ti161    10.0   .     S
Ce144     Ce146    10.001   .     S
Ce144     Ce145    10.001   .     S
Ce145     Ce146    10.001   .     S
Ce146     Ti163    10.0   .     S
Ti147     Ti148    10.0   1_556     S
Ti147     Ti149    10.0   .     S
Ti148     Ti147    10.0   1_554     S
Ti148     Ti150    10.0   .     S
Ti148     Ce151    10.0   .     S
Ti149     Ti150    10.0   1_556     S
Ti150     Ti149    10.0   1_554     S
Ce151     Ce153    10.001   .     S
Ce151     Ce152    10.001   .     S
Ce151     V174    10.001   .     S
Ce152     Ti156    10.0   .     S
Ce152     Ce153    10.001   .     S
Ce152     V172    10.001   .     S
Ce153     Ti164    10.0   .     S
Ce153     V173    10.001   .     S
Ti154     Ti155    10.0   1_556     S
Ti154     Ti157    10.0   .     S
Ti155     Ti154    10.0   1_554     S
Ti155     Ti156    10.0   .     S
Ti155     Ce166    10.0   .     S
Ti156     Ti157    10.0   1_554     S
Ti157     Ti156    10.0   1_556     S
Ti158     Ti159    10.0   1_556     S
Ti158     Ti160    10.0   .     S
Ti159     Ti158    10.0   1_554     S
Ti159     Ti161    10.0   .     S
Ti159     Ce167    10.0   .     S
Ti160     Ti161    10.0   1_556     S
Ti161     Ti160    10.0   1_554     S
Ti162     Ti164    10.0   .     S
Ti162     Ti163    10.0   .     S
Ti163     Ti165    10.0   .     S
Ti164     Ti165    10.0   .     S
Ti165     Ce168    10.0   .     S
Ce166     Ce168    10.001   .     S
Ce166     Ce167    10.001   .     S
Ce167     Ce168    10.001   .     S
Er169     V173    9.999   .     S
Er169     Er175    10.001   .     S
Er169     Er187    10.001   .     S
Er170     V172    9.999   .     S
Er170     Er183    10.001   .     S
Er170     Er188    10.001   .     S
Er171     V174    9.999   .     S
Er171     Er181    10.001   .     S
Er171     Er177    10.001   .     S
V172     V174    10.0   .     S
V172     V173    10.0   .     S
V173     V174    10.0   .     S
Er175     V180    9.999   .     S
Er175     Er187    10.001   .     S
Er176     V178    9.999   .     S
Er176     Er182    10.001   .     S
Er176     Er189    10.001   .     S
Er177     V179    9.999   .     S
Er177     Er181    10.001   .     S
V178     V179    10.0   .     S
V178     V180    10.0   .     S
V178     Ce295    10.001   .     S
V179     V180    10.0   .     S
V179     Ce296    10.001   .     S
V180     Ce297    10.001   .     S
Er181     V184    9.999   .     S
Er182     V186    9.999   .     S
Er182     Er189    10.001   .     S
Er183     V185    9.999   .     S
Er183     Er188    10.001   .     S
V184     V186    10.0   .     S
V184     V185    10.0   .     S
V184     Ce360    10.001   .     S
V185     V186    10.0   .     S
V185     Ce361    10.001   .     S
V186     Ce362    10.001   .     S
Er187     V190    9.999   .     S
Er188     V192    9.999   .     S
Er189     V191    9.999   .     S
V190     V192    10.0   .     S
V190     V191    10.0   .     S
V190     Ce193    10.001   .     S
V191     V192    10.0   .     S
V191     Ce194    10.001   .     S
V192     Ce195    10.001   .     S
Ce193     Ti213    10.0   .     S
Ce193     Ce195    10.001   .     S
Ce193     Ce194    10.001   .     S
Ce194     Ti221    10.0   .     S
Ce194     Ce195    10.001   .     S
Ce195     Ti205    10.0   .     S
Ce196     Ti222    10.0   .     S
Ce196     Ce198    10.001   .     S
Ce196     Ce197    10.001   .     S
Ce196     V324    10.001   .     S
Ce197     Ti204    10.0   .     S
Ce197     Ce198    10.001   .     S
Ce197     V323    10.001   .     S
Ce198     Ti235    10.0   .     S
Ce198     V322    10.001   .     S
Ce199     Ti229    10.0   .     S
Ce199     Ce201    10.001   .     S
Ce199     Ce200    10.001   .     S
Ce200     Ti202    10.0   .     S
Ce200     Ce201    10.001   .     S
Ce201     Ti214    10.0   .     S
Ti202     Ti203    10.0   1_565     S
Ti202     Ti205    10.0   .     S
Ti203     Ti202    10.0   1_545     S
Ti203     Ti204    10.0   .     S
Ti203     Ce207    10.0   .     S
Ti204     Ti205    10.0   1_545     S
Ti205     Ti204    10.0   1_565     S
Ce206     Ti228    10.0   .     S
Ce206     Ce208    10.001   .     S
Ce206     Ce207    10.001   .     S
Ce207     Ce208    10.001   .     S
Ce208     Ti234    10.0   .     S
Ce209     Ti212    10.0   .     S
Ce209     Ce210    10.001   .     S
Ce209     Ce211    10.001   .     S
Ce210     Ti233    10.0   .     S
Ce210     Ce211    10.001   .     S
Ce211     Ti219    10.0   .     S
Ti212     Ti215    10.0   .     S
Ti212     Ti213    10.0   .     S
Ti213     Ti214    10.0   .     S
Ti214     Ti215    10.0   .     S
Ti215     Ce216    10.0   .     S
Ce216     Ce218    10.001   .     S
Ce216     Ce217    10.001   .     S
Ce217     Ti226    10.0   .     S
Ce217     Ce218    10.001   .     S
Ce218     Ti230    10.0   .     S
Ti219     Ti220    10.0   1_565     S
Ti219     Ti221    10.0   .     S
Ti220     Ti219    10.0   1_545     S
Ti220     Ti222    10.0   .     S
Ti220     Ce223    10.0   .     S
Ti221     Ti222    10.0   1_565     S
Ti222     Ti221    10.0   1_545     S
Ce223     Ce225    10.001   .     S
Ce223     Ce224    10.001   .     S
Ce223     V246    10.001   .     S
Ce224     Ti232    10.0   .     S
Ce224     Ce225    10.001   .     S
Ce224     V244    10.001   .     S
Ce225     Ti236    10.0   .     S
Ce225     V245    10.001   .     S
Ti226     Ti227    10.0   1_565     S
Ti226     Ti229    10.0   .     S
Ti227     Ti226    10.0   1_545     S
Ti227     Ti228    10.0   .     S
Ti227     Ce238    10.0   .     S
Ti228     Ti229    10.0   1_545     S
Ti229     Ti228    10.0   1_565     S
Ti230     Ti231    10.0   1_565     S
Ti230     Ti233    10.0   .     S
Ti231     Ti230    10.0   1_545     S
Ti231     Ti232    10.0   .     S
Ti231     Ce239    10.0   .     S
Ti232     Ti233    10.0   1_545     S
Ti233     Ti232    10.0   1_565     S
Ti234     Ti237    10.0   .     S
Ti234     Ti235    10.0   .     S
Ti235     Ti236    10.0   .     S
Ti236     Ti237    10.0   .     S
Ti237     Ce240    10.0   .     S
Ce238     Ce240    10.001   .     S
Ce238     Ce239    10.001   .     S
Ce239     Ce240    10.001   .     S
Er241     V245    9.999   .     S
Er241     Er247    10.001   .     S
Er241     Er259    10.001   .     S
Er242     V244    9.999   .     S
Er242     Er254    10.001   .     S
Er242     Er261    10.001   .     S
Er243     V246    9.999   .     S
Er243     Er253    10.001   .     S
Er243     Er249    10.001   .     S
V244     V246    10.0   .     S
V244     V245    10.0   .     S
V245     V246    10.0   .     S
Er247     V252    9.999   .     S
Er247     Er259    10.001   .     S
Er248     V250    9.999   .     S
Er248     Er255    10.001   .     S
Er248     Er260    10.001   .     S
Er249     V251    9.999   .     S
Er249     Er253    10.001   .     S
V250     V252    10.0   .     S
V250     V251    10.0   .     S
V250     Ce275    10.001   .     S
V251     V252    10.0   .     S
V251     Ce276    10.001   .     S
V252     Ce277    10.001   .     S
Er253     V256    9.999   .     S
Er254     V258    9.999   .     S
Er254     Er261    10.001   .     S
Er255     V257    9.999   .     S
Er255     Er260    10.001   .     S
V256     V258    10.0   .     S
V256     V257    10.0   .     S
V256     Ce350    10.001   .     S
V257     V258    10.0   .     S
V257     Ce352    10.001   .     S
V258     Ce351    10.001   .     S
Er259     V262    9.999   .     S
Er260     V264    9.999   .     S
Er261     V263    9.999   .     S
V262     V264    10.0   .     S
V262     V263    10.0   .     S
V263     V264    10.0   .     S
Ce265     Ti274    10.0   .     S
Ce265     Ce267    10.001   .     S
Ce265     Ce266    10.001   .     S
Ce266     Ti292    10.0   .     S
Ce266     Ce267    10.001   .     S
Ce267     Ti285    10.0   .     S
Ce268     Ti273    10.0   .     S
Ce268     Ce270    10.001   .     S
Ce268     Ce269    10.001   .     S
Ce268     V334    10.001   .     S
Ce269     Ti291    10.0   .     S
Ce269     Ce270    10.001   .     S
Ce269     V335    10.001   .     S
Ce270     Ti307    10.0   .     S
Ce270     V336    10.001   .     S
Ti271     Ti272    10.0   1_655     S
Ti271     Ti274    10.0   .     S
Ti271     Ce278    10.0   .     S
Ti272     Ti271    10.0   1_455     S
Ti272     Ti273    10.0   .     S
Ti272     Ce276    10.0   .     S
Ti273     Ti274    10.0   1_455     S
Ti274     Ti273    10.0   1_655     S
Ce275     Ti304    10.0   .     S
Ce275     Ce277    10.001   .     S
Ce275     Ce276    10.001   .     S
Ce276     Ce277    10.001   .     S
Ce277     Ti306    10.0   .     S
Ce278     Ce280    10.001   .     S
Ce278     Ce279    10.001   .     S
Ce279     Ti305    10.0   .     S
Ce279     Ce280    10.001   .     S
Ce280     Ti284    10.0   .     S
Ce281     Ti286    10.0   .     S
Ce281     Ce283    10.001   .     S
Ce281     Ce282    10.001   .     S
Ce282     Ti300    10.0   .     S
Ce282     Ce283    10.001   .     S
Ce283     Ti293    10.0   .     S
Ti284     Ti287    10.0   .     S
Ti284     Ti285    10.0   .     S
Ti285     Ti286    10.0   .     S
Ti286     Ti287    10.0   .     S
Ti287     Ce290    10.0   .     S
Ce288     Ti298    10.0   .     S
Ce288     Ce290    10.001   .     S
Ce288     Ce289    10.001   .     S
Ce289     Ti302    10.0   .     S
Ce289     Ce290    10.001   .     S
Ti291     Ti294    10.0   .     S
Ti291     Ti292    10.0   1_455     S
Ti292     Ti291    10.0   1_655     S
Ti292     Ti293    10.0   .     S
Ti293     Ti294    10.0   1_655     S
Ti294     Ti293    10.0   1_455     S
Ti294     Ce296    10.0   .     S
Ce295     Ti301    10.0   .     S
Ce295     Ce297    10.001   .     S
Ce295     Ce296    10.001   .     S
Ce296     Ce297    10.001   .     S
Ce297     Ti308    10.0   .     S
Ti298     Ti299    10.0   1_655     S
Ti298     Ti300    10.0   .     S
Ti299     Ti298    10.0   1_455     S
Ti299     Ti301    10.0   .     S
Ti299     Ce310    10.0   .     S
Ti300     Ti301    10.0   1_655     S
Ti301     Ti300    10.0   1_455     S
Ti302     Ti303    10.0   1_655     S
Ti302     Ti305    10.0   .     S
Ti303     Ti302    10.0   1_455     S
Ti303     Ti304    10.0   .     S
Ti303     Ce311    10.0   .     S
Ti304     Ti305    10.0   1_455     S
Ti305     Ti304    10.0   1_655     S
Ti306     Ti309    10.0   .     S
Ti306     Ti307    10.0   .     S
Ti307     Ti308    10.0   .     S
Ti308     Ti309    10.0   .     S
Ti309     Ce312    10.0   .     S
Ce310     Ce312    10.001   .     S
Ce310     Ce311    10.001   .     S
Ce311     Ce312    10.001   .     S
Er313     V318    9.999   .     S
Er313     Er327    10.001   .     S
Er313     Er332    10.001   .     S
Er314     V317    9.999   .     S
Er314     Er321    10.001   .     S
Er314     Er326    10.001   .     S
Er315     V316    9.999   .     S
Er315     Er333    10.001   .     S
Er315     Er320    10.001   .     S
V316     V318    10.0   .     S
V316     V317    10.0   .     S
V316     Ce377    10.001   .     S
V317     V318    10.0   .     S
V317     Ce375    10.001   .     S
V318     Ce376    10.001   .     S
Er319     V322    9.999   .     S
Er319     Er331    10.001   .     S
Er319     Er325    10.001   .     S
Er320     V324    9.999   .     S
Er320     Er333    10.001   .     S
Er321     V323    9.999   .     S
Er321     Er326    10.001   .     S
V322     V323    10.0   .     S
V322     V324    10.0   .     S
V323     V324    10.0   .     S
Er325     V328    9.999   .     S
Er325     Er331    10.001   .     S
Er326     V330    9.999   .     S
Er327     V329    9.999   .     S
Er327     Er332    10.001   .     S
V328     V330    10.0   .     S
V328     V329    10.0   .     S
V329     V330    10.0   .     S
Er331     V336    9.999   .     S
Er332     V335    9.999   .     S
Er333     V334    9.999   .     S
V334     V335    10.0   .     S
V334     V336    10.0   .     S
V335     V336    10.0   .     S
Ce337     Ti357    10.0   .     S
Ce337     Ce339    10.001   .     S
Ce337     Ce338    10.001   .     S
Ce338     Ti379    10.0   .     S
Ce338     Ce339    10.001   .     S
Ce339     Ti346    10.0   .     S
Ce340     Ti363    10.0   .     S
Ce340     Ce341    10.001   .     S
Ce340     Ce342    10.001   .     S
Ce341     Ti380    10.0   .     S
Ce341     Ce342    10.001   .     S
Ce342     Ti347    10.0   .     S
Ce343     Ti368    10.0   .     S
Ce343     Ce344    10.001   .     S
Ce343     Ce345    10.001   .     S
Ce344     Ti358    10.0   .     S
Ce344     Ce345    10.001   .     S
Ce345     Ti348    10.0   .     S
Ti346     Ti347    10.0   1_565     S
Ti346     Ti348    10.0   1_655     S
Ti347     Ti346    10.0   1_545     S
Ti347     Ti349    10.0   1_655     S
Ti348     Ti346    10.0   1_455     S
Ti348     Ti349    10.0   1_565     S
Ti349     Ti347    10.0   1_455     S
Ti349     Ti348    10.0   1_545     S
Ti349     Ce350    10.0   .     S
Ce350     Ce351    10.001   .     S
Ce350     Ce352    10.001   .     S
Ce351     Ti369    10.0   .     S
Ce351     Ce352    10.001   .     S
Ce352     Ti365    10.0   .     S
Ce353     Ti371    10.0   .     S
Ce353     Ce354    10.001   .     S
Ce353     Ce355    10.001   .     S
Ce354     Ti356    10.0   .     S
Ce354     Ce355    10.001   .     S
Ce355     Ti378    10.0   .     S
Ti356     Ti359    10.0   1_655     S
Ti356     Ti357    10.0   1_554     S
Ti357     Ti358    10.0   1_655     S
Ti357     Ti356    10.0   1_556     S
Ti358     Ti357    10.0   1_455     S
Ti358     Ti359    10.0   1_556     S
Ti359     Ti356    10.0   1_455     S
Ti359     Ti358    10.0   1_554     S
Ti359     Ce360    10.0   .     S
Ce360     Ce362    10.001   .     S
Ce360     Ce361    10.001   .     S
Ce361     Ti367    10.0   .     S
Ce361     Ce362    10.001   .     S
Ce362     Ti373    10.0   .     S
Ti363     Ti364    10.0   1_556     S
Ti363     Ti365    10.0   1_655     S
Ti364     Ti363    10.0   1_554     S
Ti364     Ti366    10.0   1_655     S
Ti364     Ce383    10.0   .     S
Ti365     Ti363    10.0   1_455     S
Ti365     Ti366    10.0   1_556     S
Ti366     Ti364    10.0   1_455     S
Ti366     Ti365    10.0   1_554     S
Ti366     Ce376    10.0   .     S
Ti367     Ti370    10.0   1_565     S
Ti367     Ti368    10.0   1_554     S
Ti368     Ti369    10.0   1_565     S
Ti368     Ti367    10.0   1_556     S
Ti369     Ti368    10.0   1_545     S
Ti369     Ti370    10.0   1_556     S
Ti370     Ti367    10.0   1_545     S
Ti370     Ti369    10.0   1_554     S
Ti370     Ce375    10.0   .     S
Ti371     Ti372    10.0   1_565     S
Ti371     Ti373    10.0   1_655     S
Ti372     Ti371    10.0   1_545     S
Ti372     Ti374    10.0   1_655     S
Ti372     Ce384    10.0   .     S
Ti373     Ti371    10.0   1_455     S
Ti373     Ti374    10.0   1_565     S
Ti374     Ti372    10.0   1_455     S
Ti374     Ti373    10.0   1_545     S
Ti374     Ce377    10.0   .     S
Ce375     Ce377    10.001   .     S
Ce375     Ce376    10.001   .     S
Ce376     Ce377    10.001   .     S
Ti378     Ti381    10.0   1_565     S
Ti378     Ti379    10.0   1_554     S
Ti379     Ti380    10.0   1_565     S
Ti379     Ti378    10.0   1_556     S
Ti380     Ti379    10.0   1_545     S
Ti380     Ti381    10.0   1_556     S
Ti381     Ti378    10.0   1_545     S
Ti381     Ti380    10.0   1_554     S
Ti381     Ce382    10.0   .     S
Ce382     Ce384    10.001   .     S
Ce382     Ce383    10.001   .     S
Ce383     Ce384    10.001   .     S
