data_iacd
_audit_creation_date              2020-02-04
_audit_creation_method            'Pymatgen'
_symmetry_space_group_name_H-M    'P1'
_symmetry_Int_Tables_number       1
loop_
_symmetry_equiv_pos_as_xyz
  x,y,z
_cell_length_a                    56.5685
_cell_length_b                    56.5685
_cell_length_c                    56.5685
_cell_angle_alpha                 90.0
_cell_angle_beta                 90.0
_cell_angle_gamma                 90.0
loop_
_atom_site_label
_atom_site_type_symbol
_atom_site_fract_x
_atom_site_fract_y
_atom_site_fract_z
Er1     Er     0.125   0.75   0.0
Er2     Er     0.875   0.75   0.0
Ti3     Ti     0.0   0.75   0.125
Er4     Er     0.75   0.5   0.125
Er5     Er     0.75   0.5   0.875
Ti6     Ti     0.75   0.625   0.0
Ti7     Ti     0.875   0.5   0.75
Er8     Er     0.0   0.625   0.75
Er9     Er     0.0   0.375   0.75
Er10     Er     0.5   0.375   0.75
Er11     Er     0.5   0.625   0.75
Ti12     Ti     0.375   0.5   0.75
Er13     Er     0.75   0.5   0.625
Er14     Er     0.75   0.5   0.375
Ti15     Ti     0.75   0.375   0.5
Er16     Er     0.75   0.0   0.125
Er17     Er     0.75   0.0   0.875
Ti18     Ti     0.75   0.125   0.0
Ti19     Ti     0.5   0.75   0.875
Er20     Er     0.625   0.75   0.0
Er21     Er     0.375   0.75   0.0
Er22     Er     0.5   0.125   0.75
Ti23     Ti     0.625   0.0   0.75
Er24     Er     0.5   0.875   0.75
Er25     Er     0.0   0.125   0.75
Er26     Er     0.0   0.875   0.75
Ti27     Ti     0.125   0.0   0.75
Er28     Er     0.125   0.75   0.5
Er29     Er     0.875   0.75   0.5
Ti30     Ti     0.0   0.75   0.625
Ti31     Ti     0.75   0.875   0.5
Er32     Er     0.75   0.0   0.625
Er33     Er     0.75   0.0   0.375
Er34     Er     0.625   0.75   0.5
Er35     Er     0.375   0.75   0.5
Ti36     Ti     0.5   0.75   0.375
Er37     Er     0.375   0.25   0.5
Ti38     Ti     0.5   0.25   0.625
Er39     Er     0.625   0.25   0.5
Er40     Er     0.25   0.0   0.625
Ti41     Ti     0.25   0.125   0.5
Er42     Er     0.125   0.25   0.5
V43     V     0.125   0.375   0.625
V44     V     0.375   0.875   0.625
Er45     Er     0.25   0.5   0.375
Ti46     Ti     0.25   0.625   0.5
Er47     Er     0.25   0.5   0.625
Er48     Er     0.0   0.625   0.25
Ti49     Ti     0.125   0.5   0.25
Er50     Er     0.25   0.5   0.125
V51     V     0.375   0.625   0.125
V52     V     0.875   0.625   0.375
Er53     Er     0.5   0.375   0.25
Ti54     Ti     0.625   0.5   0.25
Er55     Er     0.5   0.625   0.25
Er56     Er     0.5   0.125   0.25
Er57     Er     0.625   0.25   0.0
Ti58     Ti     0.5   0.25   0.125
V59     V     0.625   0.375   0.875
V60     V     0.625   0.125   0.375
Er61     Er     0.875   0.25   0.5
V62     V     0.875   0.125   0.625
V63     V     0.875   0.375   0.125
Er64     Er     0.0   0.375   0.25
Ti65     Ti     0.0   0.25   0.375
Er66     Er     0.25   0.5   0.875
V67     V     0.125   0.625   0.875
V68     V     0.375   0.125   0.875
Er69     Er     0.375   0.25   0.0
Ti70     Ti     0.25   0.375   0.0
Ti71     Ti     0.25   0.875   0.0
Er72     Er     0.25   0.0   0.875
Er73     Er     0.25   0.0   0.125
Ti74     Ti     0.0   0.25   0.875
Er75     Er     0.875   0.25   0.0
Er76     Er     0.125   0.25   0.0
Ti77     Ti     0.875   0.0   0.25
Er78     Er     0.0   0.875   0.25
Er79     Er     0.0   0.125   0.25
V80     V     0.125   0.125   0.125
Er81     Er     0.5   0.875   0.25
V82     V     0.625   0.875   0.125
V83     V     0.125   0.875   0.375
Er84     Er     0.25   0.0   0.375
Ti85     Ti     0.375   0.0   0.25
V86     V     0.375   0.375   0.375
V87     V     0.625   0.625   0.625
V88     V     0.875   0.875   0.875
loop_
_geom_bond_atom_site_label_1
_geom_bond_atom_site_label_2
_geom_bond_distance
_geom_bond_site_symmetry_2
_ccdc_geom_bond_type
Er1     V67    10.0   1_554     S
Er1     Ti71    10.0   .     S
Er1     Ti3    10.0   .     S
Er2     V88    10.0   1_554     S
Er2     Ti3    10.0   1_655     S
Er2     Ti6    10.0   .     S
Ti3     Er2    10.0   1_455     S
Ti3     Er78    10.0   .     S
Ti3     Er48    10.0   .     S
Er4     V63    10.0   .     S
Er4     Ti6    10.0   .     S
Er4     Ti54    10.0   .     S
Er5     Ti6    10.0   1_556     S
Er5     V59    10.0   .     S
Er5     Ti7    10.0   .     S
Ti6     Er5    10.0   1_554     S
Ti6     Er20    10.0   .     S
Ti7     Er8    10.0   1_655     S
Ti7     Er9    10.0   1_655     S
Ti7     Er13    10.0   .     S
Er8     Ti7    10.0   1_455     S
Er8     V67    10.0   .     S
Er8     Ti30    10.0   .     S
Er9     Ti7    10.0   1_455     S
Er9     V43    10.0   .     S
Er9     Ti74    10.0   .     S
Er10     V59    10.0   .     S
Er10     Ti12    10.0   .     S
Er10     Ti38    10.0   .     S
Er11     Ti12    10.0   .     S
Er11     V87    10.0   .     S
Er11     Ti19    10.0   .     S
Ti12     Er66    10.0   .     S
Ti12     Er47    10.0   .     S
Er13     Ti15    10.0   .     S
Er13     V87    10.0   .     S
Er14     V52    10.0   .     S
Er14     Ti15    10.0   .     S
Er14     Ti54    10.0   .     S
Ti15     Er39    10.0   .     S
Ti15     Er61    10.0   .     S
Er16     V82    10.0   1_545     S
Er16     Ti77    10.0   .     S
Er16     Ti18    10.0   .     S
Er17     V88    10.0   1_545     S
Er17     Ti18    10.0   1_556     S
Er17     Ti23    10.0   .     S
Ti18     Er17    10.0   1_554     S
Ti18     Er57    10.0   .     S
Ti18     Er75    10.0   .     S
Ti19     Er20    10.0   1_556     S
Ti19     Er21    10.0   1_556     S
Ti19     Er24    10.0   .     S
Er20     Ti19    10.0   1_554     S
Er20     V82    10.0   .     S
Er21     Ti19    10.0   1_554     S
Er21     V51    10.0   .     S
Er21     Ti71    10.0   .     S
Er22     V68    10.0   .     S
Er22     Ti23    10.0   .     S
Er22     Ti38    10.0   .     S
Ti23     Er24    10.0   1_545     S
Ti23     Er32    10.0   .     S
Er24     Ti23    10.0   1_565     S
Er24     V44    10.0   .     S
Er25     V62    10.0   1_455     S
Er25     Ti74    10.0   .     S
Er25     Ti27    10.0   .     S
Er26     V88    10.0   1_455     S
Er26     Ti27    10.0   1_565     S
Er26     Ti30    10.0   .     S
Ti27     Er26    10.0   1_545     S
Ti27     Er40    10.0   .     S
Ti27     Er72    10.0   .     S
Er28     V83    10.0   .     S
Er28     Ti30    10.0   .     S
Er28     Ti46    10.0   .     S
Er29     Ti30    10.0   1_655     S
Er29     V52    10.0   .     S
Er29     Ti31    10.0   .     S
Ti30     Er29    10.0   1_455     S
Ti31     Er33    10.0   1_565     S
Ti31     Er32    10.0   1_565     S
Ti31     Er34    10.0   .     S
Er32     Ti31    10.0   1_545     S
Er32     V62    10.0   .     S
Er33     Ti31    10.0   1_545     S
Er33     V60    10.0   .     S
Er33     Ti77    10.0   .     S
Er34     Ti36    10.0   .     S
Er34     V87    10.0   .     S
Er35     V44    10.0   .     S
Er35     Ti46    10.0   .     S
Er35     Ti36    10.0   .     S
Ti36     Er81    10.0   .     S
Ti36     Er55    10.0   .     S
Er37     V86    10.0   .     S
Er37     Ti38    10.0   .     S
Er37     Ti41    10.0   .     S
Ti38     Er39    10.0   .     S
Er39     V60    10.0   .     S
Er40     V44    10.0   1_545     S
Er40     Ti41    10.0   .     S
Ti41     Er84    10.0   .     S
Ti41     Er42    10.0   .     S
Er42     V43    10.0   .     S
Er42     Ti65    10.0   .     S
V43     Er47    10.0   .     S
V44     Er40    10.0   1_565     S
Er45     V86    10.0   .     S
Er45     Ti46    10.0   .     S
Er45     Ti49    10.0   .     S
Ti46     Er47    10.0   .     S
Er48     V52    10.0   1_455     S
Er48     Ti49    10.0   .     S
Ti49     Er64    10.0   .     S
Ti49     Er50    10.0   .     S
Er50     V51    10.0   .     S
Er50     Ti70    10.0   .     S
V51     Er55    10.0   .     S
V52     Er48    10.0   1_655     S
Er53     V86    10.0   .     S
Er53     Ti54    10.0   .     S
Er53     Ti58    10.0   .     S
Ti54     Er55    10.0   .     S
Er56     V60    10.0   .     S
Er56     Ti85    10.0   .     S
Er56     Ti58    10.0   .     S
Er57     V59    10.0   1_554     S
Er57     Ti58    10.0   .     S
Ti58     Er69    10.0   .     S
V59     Er57    10.0   1_556     S
Er61     Ti65    10.0   1_655     S
Er61     V62    10.0   .     S
V62     Er25    10.0   1_655     S
V63     Er64    10.0   1_655     S
V63     Er75    10.0   .     S
Er64     V63    10.0   1_455     S
Er64     Ti65    10.0   .     S
Ti65     Er61    10.0   1_455     S
Ti65     Er79    10.0   .     S
Er66     Ti70    10.0   1_556     S
Er66     V67    10.0   .     S
V67     Er1    10.0   1_556     S
V68     Er69    10.0   1_556     S
V68     Er72    10.0   .     S
Er69     V68    10.0   1_554     S
Er69     Ti70    10.0   .     S
Ti70     Er66    10.0   1_554     S
Ti70     Er76    10.0   .     S
Ti71     Er72    10.0   1_564     S
Ti71     Er73    10.0   1_565     S
Er72     Ti71    10.0   1_546     S
Er73     Ti85    10.0   .     S
Er73     Ti71    10.0   1_545     S
Er73     V80    10.0   .     S
Ti74     Er75    10.0   1_456     S
Ti74     Er76    10.0   1_556     S
Er75     Ti74    10.0   1_654     S
Er76     Ti74    10.0   1_554     S
Er76     V80    10.0   .     S
Ti77     Er78    10.0   1_645     S
Ti77     Er79    10.0   1_655     S
Er78     Ti77    10.0   1_465     S
Er78     V83    10.0   .     S
Er79     Ti77    10.0   1_455     S
Er79     V80    10.0   .     S
Er81     Ti85    10.0   1_565     S
Er81     V82    10.0   .     S
V82     Er16    10.0   1_565     S
V83     Er84    10.0   1_565     S
Er84     V83    10.0   1_545     S
Er84     Ti85    10.0   .     S
Ti85     Er81    10.0   1_545     S
V88     Er2    10.0   1_556     S
V88     Er17    10.0   1_565     S
V88     Er26    10.0   1_655     S
