data_iace
_audit_creation_date              2020-02-04
_audit_creation_method            'Pymatgen'
_symmetry_space_group_name_H-M    'P1'
_symmetry_Int_Tables_number       1
loop_
_symmetry_equiv_pos_as_xyz
  x,y,z
_cell_length_a                    45.6405
_cell_length_b                    45.6405
_cell_length_c                    45.6405
_cell_angle_alpha                 90.0
_cell_angle_beta                 90.0
_cell_angle_gamma                 90.0
loop_
_atom_site_label
_atom_site_type_symbol
_atom_site_fract_x
_atom_site_fract_y
_atom_site_fract_z
V1     V     0.6486   0.0384   0.5203
V2     V     0.8514   0.0384   0.4797
V3     V     0.7297   0.2116   0.6014
V4     V     0.7703   0.2116   0.3986
V5     V     0.4797   0.8514   0.0384
V6     V     0.5203   0.6486   0.0384
V7     V     0.3986   0.7703   0.2116
V8     V     0.6014   0.7297   0.2116
V9     V     0.8986   0.7297   0.7884
V10     V     0.1014   0.7703   0.7884
V11     V     0.9797   0.6486   0.9616
V12     V     0.0203   0.8514   0.9616
V13     V     0.3514   0.5384   0.9797
V14     V     0.1486   0.5384   0.0203
V15     V     0.2297   0.7116   0.1014
V16     V     0.2703   0.7116   0.8986
V17     V     0.7703   0.7884   0.1014
V18     V     0.7297   0.7884   0.8986
V19     V     0.6486   0.9616   0.9797
V20     V     0.8514   0.9616   0.0203
V21     V     0.5384   0.9797   0.3514
V22     V     0.5384   0.0203   0.1486
V23     V     0.7116   0.1014   0.2297
V24     V     0.7116   0.8986   0.2703
V25     V     0.4616   0.4797   0.1486
V26     V     0.4616   0.5203   0.3514
V27     V     0.2884   0.3986   0.2297
V28     V     0.2884   0.6014   0.2703
V29     V     0.3986   0.2297   0.2884
V30     V     0.6014   0.2703   0.2884
V31     V     0.5203   0.3514   0.4616
V32     V     0.4797   0.1486   0.4616
V33     V     0.2703   0.2884   0.6014
V34     V     0.2297   0.2884   0.3986
V35     V     0.3514   0.4616   0.5203
V36     V     0.1486   0.4616   0.4797
V37     V     0.7884   0.8986   0.7297
V38     V     0.7884   0.1014   0.7703
V39     V     0.9616   0.0203   0.8514
V40     V     0.9616   0.9797   0.6486
V41     V     0.0203   0.1486   0.5384
V42     V     0.9797   0.3514   0.5384
V43     V     0.8986   0.2703   0.7116
V44     V     0.1014   0.2297   0.7116
V45     V     0.0384   0.5203   0.6486
V46     V     0.0384   0.4797   0.8514
V47     V     0.2116   0.3986   0.7703
V48     V     0.2116   0.6014   0.7297
V49     V     0.4616   0.9797   0.8514
V50     V     0.4616   0.0203   0.6486
V51     V     0.2884   0.8986   0.7703
V52     V     0.2884   0.1014   0.7297
V53     V     0.9797   0.8514   0.4616
V54     V     0.0203   0.6486   0.4616
V55     V     0.8986   0.7703   0.2884
V56     V     0.1014   0.7297   0.2884
V57     V     0.7297   0.7116   0.3986
V58     V     0.7703   0.7116   0.6014
V59     V     0.8514   0.5384   0.5203
V60     V     0.6486   0.5384   0.4797
V61     V     0.7116   0.3986   0.7297
V62     V     0.7116   0.6014   0.7703
V63     V     0.5384   0.5203   0.8514
V64     V     0.5384   0.4797   0.6486
V65     V     0.5203   0.8514   0.5384
V66     V     0.4797   0.6486   0.5384
V67     V     0.3986   0.7297   0.7116
V68     V     0.6014   0.7703   0.7116
V69     V     0.7884   0.3986   0.2703
V70     V     0.7884   0.6014   0.2297
V71     V     0.9616   0.4797   0.3514
V72     V     0.9616   0.5203   0.1486
V73     V     0.2703   0.7884   0.3986
V74     V     0.2297   0.7884   0.6014
V75     V     0.3514   0.9616   0.4797
V76     V     0.1486   0.9616   0.5203
V77     V     0.0384   0.0203   0.3514
V78     V     0.0384   0.9797   0.1486
V79     V     0.2116   0.8986   0.2297
V80     V     0.2116   0.1014   0.2703
V81     V     0.0203   0.3514   0.0384
V82     V     0.9797   0.1486   0.0384
V83     V     0.8986   0.2297   0.2116
V84     V     0.1014   0.2703   0.2116
V85     V     0.3514   0.0384   0.0203
V86     V     0.1486   0.0384   0.9797
V87     V     0.2297   0.2116   0.8986
V88     V     0.2703   0.2116   0.1014
V89     V     0.6014   0.2297   0.7884
V90     V     0.3986   0.2703   0.7884
V91     V     0.4797   0.3514   0.9616
V92     V     0.5203   0.1486   0.9616
V93     V     0.7703   0.2884   0.8986
V94     V     0.7297   0.2884   0.1014
V95     V     0.8514   0.4616   0.9797
V96     V     0.6486   0.4616   0.0203
loop_
_geom_bond_atom_site_label_1
_geom_bond_atom_site_label_2
_geom_bond_distance
_geom_bond_site_symmetry_2
_ccdc_geom_bond_type
V1     V50    10.387   .     S
V1     V65    10.387   1_545     S
V1     V21    9.586   1_545     S
V1     V32    9.586   .     S
V1     V4    11.14   .     S
V1     V2    9.437   .     S
V1     V3    9.478   .     S
V2     V77    10.387   1_655     S
V2     V53    10.387   1_545     S
V2     V41    9.586   1_655     S
V2     V40    9.586   1_545     S
V2     V3    11.14   .     S
V2     V4    9.478   .     S
V3     V89    10.387   .     S
V3     V61    10.387   .     S
V3     V38    9.586   .     S
V3     V43    9.586   .     S
V3     V4    9.437   .     S
V4     V83    10.387   .     S
V4     V69    10.387   .     S
V4     V23    9.586   .     S
V4     V30    9.586   .     S
V5     V85    10.387   1_565     S
V5     V49    10.387   1_554     S
V5     V22    9.586   1_565     S
V5     V19    9.586   1_554     S
V5     V8    11.14   .     S
V5     V6    9.437   .     S
V5     V7    9.478   .     S
V6     V96    10.387   .     S
V6     V63    10.387   1_554     S
V6     V13    9.586   1_554     S
V6     V25    9.586   .     S
V6     V7    11.14   .     S
V6     V8    9.478   .     S
V7     V79    10.387   .     S
V7     V73    10.387   .     S
V7     V15    9.586   .     S
V7     V28    9.586   .     S
V7     V8    9.437   .     S
V8     V70    10.387   .     S
V8     V57    10.387   .     S
V8     V17    9.586   .     S
V8     V24    9.586   .     S
V9     V58    10.387   .     S
V9     V62    10.387   .     S
V9     V18    9.586   .     S
V9     V37    9.586   .     S
V9     V12    11.14   1_655     S
V9     V10    9.437   1_655     S
V9     V11    9.478   .     S
V10     V74    10.387   .     S
V10     V51    10.387   .     S
V10     V16    9.586   .     S
V10     V48    9.586   .     S
V10     V11    11.14   1_455     S
V10     V9    9.437   1_455     S
V10     V12    9.478   .     S
V11     V95    10.387   .     S
V11     V72    10.387   1_556     S
V11     V46    9.586   1_655     S
V11     V14    9.586   1_656     S
V11     V10    11.14   1_655     S
V11     V12    9.437   1_655     S
V12     V78    10.387   1_556     S
V12     V86    10.387   1_565     S
V12     V39    9.586   1_465     S
V12     V20    9.586   1_456     S
V12     V9    11.14   1_455     S
V12     V11    9.437   1_455     S
V13     V63    10.387   .     S
V13     V91    10.387   .     S
V13     V6    9.586   1_556     S
V13     V25    9.586   1_556     S
V13     V15    11.14   1_556     S
V13     V14    9.437   1_556     S
V13     V16    9.478   .     S
V14     V81    10.387   .     S
V14     V72    10.387   1_455     S
V14     V46    9.586   1_554     S
V14     V11    9.586   1_454     S
V14     V16    11.14   1_554     S
V14     V13    9.437   1_554     S
V14     V15    9.478   .     S
V15     V56    10.387   .     S
V15     V79    10.387   .     S
V15     V28    9.586   .     S
V15     V13    11.14   1_554     S
V15     V16    9.437   1_554     S
V16     V67    10.387   .     S
V16     V51    10.387   .     S
V16     V48    9.586   .     S
V16     V14    11.14   1_556     S
V16     V15    9.437   1_556     S
V17     V55    10.387   .     S
V17     V70    10.387   .     S
V17     V24    9.586   .     S
V17     V19    11.14   1_554     S
V17     V18    9.437   1_554     S
V17     V20    9.478   .     S
V18     V62    10.387   .     S
V18     V68    10.387   .     S
V18     V37    9.586   .     S
V18     V20    11.14   1_556     S
V18     V17    9.437   1_556     S
V18     V19    9.478   .     S
V19     V49    10.387   .     S
V19     V92    10.387   1_565     S
V19     V5    9.586   1_556     S
V19     V22    9.586   1_566     S
V19     V17    11.14   1_556     S
V19     V20    9.437   1_556     S
V20     V78    10.387   1_655     S
V20     V82    10.387   1_565     S
V20     V12    9.586   1_654     S
V20     V39    9.586   1_564     S
V20     V18    11.14   1_554     S
V20     V19    9.437   1_554     S
V21     V75    10.387   .     S
V21     V65    10.387   .     S
V21     V1    9.586   1_565     S
V21     V32    9.586   1_565     S
V21     V23    11.14   1_565     S
V21     V22    9.437   1_565     S
V21     V24    9.478   .     S
V22     V85    10.387   .     S
V22     V92    10.387   1_554     S
V22     V5    9.586   1_545     S
V22     V19    9.586   1_544     S
V22     V24    11.14   1_545     S
V22     V21    9.437   1_545     S
V22     V23    9.478   .     S
V23     V94    10.387   .     S
V23     V83    10.387   .     S
V23     V30    9.586   .     S
V23     V21    11.14   1_545     S
V23     V24    9.437   1_545     S
V24     V57    10.387   .     S
V24     V55    10.387   .     S
V24     V22    11.14   1_565     S
V24     V23    9.437   1_565     S
V25     V96    10.387   .     S
V25     V91    10.387   1_554     S
V25     V13    9.586   1_554     S
V25     V28    11.14   .     S
V25     V26    9.437   .     S
V25     V27    9.478   .     S
V26     V66    10.387   .     S
V26     V60    10.387   .     S
V26     V31    9.586   .     S
V26     V35    9.586   .     S
V26     V27    11.14   .     S
V26     V28    9.478   .     S
V27     V88    10.387   .     S
V27     V84    10.387   .     S
V27     V34    9.586   .     S
V27     V29    9.586   .     S
V27     V28    9.437   .     S
V28     V56    10.387   .     S
V28     V73    10.387   .     S
V29     V88    10.387   .     S
V29     V80    10.387   .     S
V29     V34    9.586   .     S
V29     V31    11.14   .     S
V29     V30    9.437   .     S
V29     V32    9.478   .     S
V30     V94    10.387   .     S
V30     V69    10.387   .     S
V30     V32    11.14   .     S
V30     V31    9.478   .     S
V31     V64    10.387   .     S
V31     V60    10.387   .     S
V31     V35    9.586   .     S
V31     V32    9.437   .     S
V32     V75    10.387   1_545     S
V32     V50    10.387   .     S
V32     V21    9.586   1_545     S
V33     V52    10.387   .     S
V33     V90    10.387   .     S
V33     V47    9.586   .     S
V33     V44    9.586   .     S
V33     V36    11.14   .     S
V33     V34    9.437   .     S
V33     V35    9.478   .     S
V34     V84    10.387   .     S
V34     V80    10.387   .     S
V34     V35    11.14   .     S
V34     V36    9.478   .     S
V35     V66    10.387   .     S
V35     V64    10.387   .     S
V35     V36    9.437   .     S
V36     V71    10.387   1_455     S
V36     V54    10.387   .     S
V36     V42    9.586   1_455     S
V36     V45    9.586   .     S
V37     V58    10.387   .     S
V37     V68    10.387   .     S
V37     V39    11.14   1_565     S
V37     V38    9.437   1_565     S
V37     V40    9.478   .     S
V38     V89    10.387   .     S
V38     V93    10.387   .     S
V38     V43    9.586   .     S
V38     V40    11.14   1_545     S
V38     V37    9.437   1_545     S
V38     V39    9.478   .     S
V39     V86    10.387   1_655     S
V39     V82    10.387   1_556     S
V39     V12    9.586   1_645     S
V39     V20    9.586   1_546     S
V39     V37    11.14   1_545     S
V39     V40    9.437   1_545     S
V40     V76    10.387   1_655     S
V40     V53    10.387   .     S
V40     V2    9.586   1_565     S
V40     V41    9.586   1_665     S
V40     V38    11.14   1_565     S
V40     V39    9.437   1_565     S
V41     V77    10.387   .     S
V41     V76    10.387   1_545     S
V41     V2    9.586   1_455     S
V41     V40    9.586   1_445     S
V41     V43    11.14   1_455     S
V41     V42    9.437   1_455     S
V41     V44    9.478   .     S
V42     V71    10.387   .     S
V42     V59    10.387   .     S
V42     V36    9.586   1_655     S
V42     V45    9.586   1_655     S
V42     V44    11.14   1_655     S
V42     V41    9.437   1_655     S
V42     V43    9.478   .     S
V43     V61    10.387   .     S
V43     V93    10.387   .     S
V43     V41    11.14   1_655     S
V43     V44    9.437   1_655     S
V44     V87    10.387   .     S
V44     V52    10.387   .     S
V44     V47    9.586   .     S
V44     V42    11.14   1_455     S
V44     V43    9.437   1_455     S
V45     V54    10.387   .     S
V45     V59    10.387   1_455     S
V45     V42    9.586   1_455     S
V45     V47    11.14   .     S
V45     V46    9.437   .     S
V45     V48    9.478   .     S
V46     V81    10.387   1_556     S
V46     V95    10.387   1_455     S
V46     V14    9.586   1_556     S
V46     V11    9.586   1_455     S
V46     V48    11.14   .     S
V46     V47    9.478   .     S
V47     V87    10.387   .     S
V47     V90    10.387   .     S
V47     V48    9.437   .     S
V48     V74    10.387   .     S
V48     V67    10.387   .     S
V49     V5    10.387   1_556     S
V49     V92    9.586   1_565     S
V49     V85    9.586   1_566     S
V49     V52    11.14   1_565     S
V49     V50    9.437   1_565     S
V49     V51    9.478   .     S
V50     V75    9.586   1_545     S
V50     V65    9.586   1_545     S
V50     V51    11.14   1_545     S
V50     V49    9.437   1_545     S
V50     V52    9.478   .     S
V51     V67    9.586   .     S
V51     V74    9.586   .     S
V51     V50    11.14   1_565     S
V51     V52    9.437   1_565     S
V52     V90    9.586   .     S
V52     V87    9.586   .     S
V52     V49    11.14   1_545     S
V52     V51    9.437   1_545     S
V53     V2    10.387   1_565     S
V53     V76    9.586   1_655     S
V53     V77    9.586   1_665     S
V53     V56    11.14   1_655     S
V53     V54    9.437   1_655     S
V53     V55    9.478   .     S
V54     V71    9.586   1_455     S
V54     V59    9.586   1_455     S
V54     V55    11.14   1_455     S
V54     V53    9.437   1_455     S
V54     V56    9.478   .     S
V55     V70    9.586   .     S
V55     V57    9.586   .     S
V55     V54    11.14   1_655     S
V55     V56    9.437   1_655     S
V56     V73    9.586   .     S
V56     V79    9.586   .     S
V56     V53    11.14   1_455     S
V56     V55    9.437   1_455     S
V57     V70    9.586   .     S
V57     V59    11.14   .     S
V57     V58    9.437   .     S
V57     V60    9.478   .     S
V58     V68    9.586   .     S
V58     V62    9.586   .     S
V58     V60    11.14   .     S
V58     V59    9.478   .     S
V59     V45    10.387   1_655     S
V59     V71    9.586   .     S
V59     V54    9.586   1_655     S
V59     V60    9.437   .     S
V60     V66    9.586   .     S
V60     V64    9.586   .     S
V61     V89    9.586   .     S
V61     V93    9.586   .     S
V61     V63    11.14   .     S
V61     V62    9.437   .     S
V61     V64    9.478   .     S
V62     V68    9.586   .     S
V62     V64    11.14   .     S
V62     V63    9.478   .     S
V63     V6    10.387   1_556     S
V63     V91    9.586   .     S
V63     V96    9.586   1_556     S
V63     V64    9.437   .     S
V64     V66    9.586   .     S
V65     V1    10.387   1_565     S
V65     V75    9.586   .     S
V65     V50    9.586   1_565     S
V65     V67    11.14   .     S
V65     V66    9.437   .     S
V65     V68    9.478   .     S
V66     V68    11.14   .     S
V66     V67    9.478   .     S
V67     V74    9.586   .     S
V67     V68    9.437   .     S
V69     V83    9.586   .     S
V69     V94    9.586   .     S
V69     V72    11.14   .     S
V69     V70    9.437   .     S
V69     V71    9.478   .     S
V70     V71    11.14   .     S
V70     V72    9.478   .     S
V71     V36    10.387   1_655     S
V71     V54    9.586   1_655     S
V71     V72    9.437   .     S
V72     V11    10.387   1_554     S
V72     V14    10.387   1_655     S
V72     V95    9.586   1_554     S
V72     V81    9.586   1_655     S
V73     V79    9.586   .     S
V73     V76    11.14   .     S
V73     V74    9.437   .     S
V73     V75    9.478   .     S
V74     V75    11.14   .     S
V74     V76    9.478   .     S
V75     V32    10.387   1_565     S
V75     V50    9.586   1_565     S
V75     V76    9.437   .     S
V76     V40    10.387   1_455     S
V76     V41    10.387   1_565     S
V76     V53    9.586   1_455     S
V76     V77    9.586   1_565     S
V77     V2    10.387   1_455     S
V77     V76    9.586   1_545     S
V77     V53    9.586   1_445     S
V77     V79    11.14   1_545     S
V77     V78    9.437   1_545     S
V77     V80    9.478   .     S
V78     V20    10.387   1_455     S
V78     V12    10.387   1_554     S
V78     V86    9.586   1_564     S
V78     V82    9.586   1_465     S
V78     V80    11.14   1_565     S
V78     V77    9.437   1_565     S
V78     V79    9.478   .     S
V79     V77    11.14   1_565     S
V79     V80    9.437   1_565     S
V80     V84    9.586   .     S
V80     V88    9.586   .     S
V80     V78    11.14   1_545     S
V80     V79    9.437   1_545     S
V81     V46    10.387   1_554     S
V81     V72    9.586   1_455     S
V81     V95    9.586   1_454     S
V81     V83    11.14   1_455     S
V81     V82    9.437   1_455     S
V81     V84    9.478   .     S
V82     V39    10.387   1_554     S
V82     V20    10.387   1_545     S
V82     V86    9.586   1_654     S
V82     V78    9.586   1_645     S
V82     V84    11.14   1_655     S
V82     V81    9.437   1_655     S
V82     V83    9.478   .     S
V83     V94    9.586   .     S
V83     V81    11.14   1_655     S
V83     V84    9.437   1_655     S
V84     V88    9.586   .     S
V84     V82    11.14   1_455     S
V84     V83    9.437   1_455     S
V85     V5    10.387   1_545     S
V85     V92    9.586   1_554     S
V85     V49    9.586   1_544     S
V85     V87    11.14   1_554     S
V85     V86    9.437   1_554     S
V85     V88    9.478   .     S
V86     V39    10.387   1_455     S
V86     V12    10.387   1_545     S
V86     V82    9.586   1_456     S
V86     V78    9.586   1_546     S
V86     V88    11.14   1_556     S
V86     V85    9.437   1_556     S
V86     V87    9.478   .     S
V87     V90    9.586   .     S
V87     V85    11.14   1_556     S
V87     V88    9.437   1_556     S
V88     V86    11.14   1_554     S
V88     V87    9.437   1_554     S
V89     V93    9.586   .     S
V89     V91    11.14   .     S
V89     V90    9.437   .     S
V89     V92    9.478   .     S
V90     V92    11.14   .     S
V90     V91    9.478   .     S
V91     V25    10.387   1_556     S
V91     V96    9.586   1_556     S
V91     V92    9.437   .     S
V92     V19    10.387   1_545     S
V92     V22    10.387   1_556     S
V92     V49    9.586   1_545     S
V92     V85    9.586   1_556     S
V93     V96    11.14   1_556     S
V93     V94    9.437   1_556     S
V93     V95    9.478   .     S
V94     V95    11.14   1_554     S
V94     V93    9.437   1_554     S
V94     V96    9.478   .     S
V95     V46    10.387   1_655     S
V95     V72    9.586   1_556     S
V95     V81    9.586   1_656     S
V95     V94    11.14   1_556     S
V95     V96    9.437   1_556     S
V96     V63    9.586   1_554     S
V96     V91    9.586   1_554     S
V96     V93    11.14   1_554     S
V96     V95    9.437   1_554     S
