data_ibd
_audit_creation_date              2020-02-04
_audit_creation_method            'Pymatgen'
_symmetry_space_group_name_H-M    'P1'
_symmetry_Int_Tables_number       1
loop_
_symmetry_equiv_pos_as_xyz
  x,y,z
_cell_length_a                    32.6599
_cell_length_b                    32.6599
_cell_length_c                    32.6599
_cell_angle_alpha                 90.0
_cell_angle_beta                 90.0
_cell_angle_gamma                 90.0
loop_
_atom_site_label
_atom_site_type_symbol
_atom_site_fract_x
_atom_site_fract_y
_atom_site_fract_z
Er1     Er     0.625   0.625   0.625
Er2     Er     0.875   0.875   0.875
V3     V     0.25   0.875   0.0
V4     V     0.0   0.25   0.875
V5     V     0.875   0.0   0.25
V6     V     0.0   0.75   0.125
Er7     Er     0.125   0.125   0.125
V8     V     0.75   0.125   0.0
V9     V     0.125   0.0   0.75
Er10     Er     0.875   0.625   0.375
V11     V     0.75   0.375   0.5
V12     V     0.75   0.625   0.0
Er13     Er     0.875   0.375   0.125
V14     V     0.125   0.5   0.25
Er15     Er     0.375   0.125   0.875
V16     V     0.625   0.0   0.75
V17     V     0.375   0.5   0.75
Er18     Er     0.625   0.375   0.875
V19     V     0.5   0.25   0.125
V20     V     0.25   0.375   0.0
Er21     Er     0.125   0.625   0.875
V22     V     0.875   0.5   0.75
V23     V     0.625   0.5   0.25
Er24     Er     0.375   0.625   0.125
V25     V     0.375   0.0   0.25
Er26     Er     0.625   0.875   0.125
V27     V     0.5   0.75   0.875
V28     V     0.5   0.25   0.625
Er29     Er     0.625   0.125   0.375
V30     V     0.0   0.25   0.375
Er31     Er     0.875   0.125   0.625
V32     V     0.75   0.875   0.5
Er33     Er     0.125   0.375   0.625
V34     V     0.25   0.625   0.5
Er35     Er     0.375   0.375   0.375
Er36     Er     0.125   0.875   0.375
V37     V     0.0   0.75   0.625
V38     V     0.5   0.75   0.375
Er39     Er     0.375   0.875   0.625
V40     V     0.25   0.125   0.5
loop_
_geom_bond_atom_site_label_1
_geom_bond_atom_site_label_2
_geom_bond_distance
_geom_bond_site_symmetry_2
_ccdc_geom_bond_type
Er1     V38    10.0   .     S
Er1     V11    10.0   .     S
Er1     V17    10.0   .     S
Er1     V27    10.0   .     S
Er1     V22    10.0   .     S
Er1     V32    10.0   .     S
Er2     V6    10.0   1_656     S
Er2     V37    10.0   1_655     S
Er2     V16    10.0   1_565     S
Er2     V8    10.0   1_566     S
Er2     V12    10.0   1_556     S
Er2     V9    10.0   1_665     S
V3     Er7    10.0   1_565     S
V3     Er15    10.0   1_564     S
V3     Er24    10.0   .     S
V3     Er21    10.0   1_554     S
V4     Er7    10.0   1_556     S
V4     Er31    10.0   1_455     S
V4     Er13    10.0   1_456     S
V4     Er33    10.0   .     S
V5     Er36    10.0   1_645     S
V5     Er7    10.0   1_655     S
V5     Er29    10.0   .     S
V5     Er26    10.0   1_545     S
V6     Er2    10.0   1_454     S
V6     Er36    10.0   .     S
V6     Er10    10.0   1_455     S
V6     Er21    10.0   1_554     S
Er7     V3    10.0   1_545     S
Er7     V4    10.0   1_554     S
Er7     V5    10.0   1_455     S
Er7     V30    10.0   .     S
Er7     V25    10.0   .     S
Er7     V20    10.0   .     S
V8     Er2    10.0   1_544     S
V8     Er13    10.0   .     S
V8     Er18    10.0   1_554     S
V8     Er26    10.0   1_545     S
V9     Er2    10.0   1_445     S
V9     Er15    10.0   .     S
V9     Er31    10.0   1_455     S
V9     Er39    10.0   1_545     S
Er10     V37    10.0   1_655     S
Er10     V11    10.0   .     S
Er10     V14    10.0   1_655     S
Er10     V6    10.0   1_655     S
Er10     V23    10.0   .     S
Er10     V32    10.0   .     S
V11     Er29    10.0   .     S
V11     Er31    10.0   .     S
V12     Er2    10.0   1_554     S
V12     Er13    10.0   .     S
V12     Er18    10.0   1_554     S
V12     Er26    10.0   .     S
Er13     V4    10.0   1_654     S
Er13     V14    10.0   1_655     S
Er13     V23    10.0   .     S
Er13     V30    10.0   1_655     S
V14     Er10    10.0   1_455     S
V14     Er13    10.0   1_455     S
V14     Er35    10.0   .     S
V14     Er24    10.0   .     S
Er15     V3    10.0   1_546     S
Er15     V19    10.0   1_556     S
Er15     V28    10.0   .     S
Er15     V16    10.0   .     S
Er15     V20    10.0   1_556     S
V16     Er2    10.0   1_545     S
V16     Er31    10.0   .     S
V16     Er39    10.0   1_545     S
V17     Er18    10.0   .     S
V17     Er21    10.0   .     S
V17     Er33    10.0   .     S
Er18     V12    10.0   1_556     S
Er18     V8    10.0   1_556     S
Er18     V19    10.0   1_556     S
Er18     V28    10.0   .     S
Er18     V22    10.0   .     S
V19     Er15    10.0   1_554     S
V19     Er18    10.0   1_554     S
V19     Er29    10.0   .     S
V19     Er35    10.0   .     S
V20     Er24    10.0   .     S
V20     Er21    10.0   1_554     S
V20     Er15    10.0   1_554     S
Er21     V3    10.0   1_556     S
Er21     V20    10.0   1_556     S
Er21     V37    10.0   .     S
Er21     V22    10.0   1_455     S
Er21     V6    10.0   1_556     S
V22     Er21    10.0   1_655     S
V22     Er33    10.0   1_655     S
V23     Er35    10.0   .     S
V23     Er24    10.0   .     S
Er24     V38    10.0   .     S
Er24     V27    10.0   1_554     S
V25     Er29    10.0   .     S
V25     Er26    10.0   1_545     S
V25     Er36    10.0   1_545     S
Er26     V5    10.0   1_565     S
Er26     V25    10.0   1_565     S
Er26     V38    10.0   .     S
Er26     V8    10.0   1_565     S
Er26     V27    10.0   1_554     S
V27     Er26    10.0   1_556     S
V27     Er39    10.0   .     S
V27     Er24    10.0   1_556     S
V28     Er35    10.0   .     S
V28     Er29    10.0   .     S
Er29     V32    10.0   1_545     S
V30     Er31    10.0   1_455     S
V30     Er33    10.0   .     S
V30     Er13    10.0   1_455     S
Er31     V4    10.0   1_655     S
Er31     V30    10.0   1_655     S
Er31     V32    10.0   1_545     S
Er31     V9    10.0   1_655     S
V32     Er31    10.0   1_565     S
V32     Er29    10.0   1_565     S
Er33     V34    10.0   .     S
Er33     V22    10.0   1_455     S
Er33     V40    10.0   .     S
V34     Er35    10.0   .     S
V34     Er36    10.0   .     S
V34     Er39    10.0   .     S
Er35     V40    10.0   .     S
Er36     V5    10.0   1_465     S
Er36     V40    10.0   1_565     S
Er36     V37    10.0   .     S
Er36     V25    10.0   1_565     S
V37     Er2    10.0   1_455     S
V37     Er10    10.0   1_455     S
V38     Er39    10.0   .     S
Er39     V16    10.0   1_565     S
Er39     V9    10.0   1_565     S
Er39     V40    10.0   1_565     S
V40     Er36    10.0   1_545     S
V40     Er39    10.0   1_545     S
