data_ibda
_audit_creation_date              2020-02-04
_audit_creation_method            'Pymatgen'
_symmetry_space_group_name_H-M    'P1'
_symmetry_Int_Tables_number       1
loop_
_symmetry_equiv_pos_as_xyz
  x,y,z
_cell_length_a                    71.3949
_cell_length_b                    71.3949
_cell_length_c                    71.3949
_cell_angle_alpha                 90.0
_cell_angle_beta                 90.0
_cell_angle_gamma                 90.0
loop_
_atom_site_label
_atom_site_type_symbol
_atom_site_fract_x
_atom_site_fract_y
_atom_site_fract_z
V1     V     0.691   0.592   0.691
V2     V     0.691   0.691   0.592
V3     V     0.592   0.691   0.691
V4     V     0.191   0.092   0.191
V5     V     0.191   0.191   0.092
V6     V     0.092   0.191   0.191
Er7     Er     0.6745   0.5584   0.2887
Er8     Er     0.5755   0.5387   0.1916
Er9     Er     0.6745   0.4416   0.2113
Er10     Er     0.5755   0.4613   0.3084
V11     V     0.342   0.441   0.441
V12     V     0.441   0.441   0.342
V13     V     0.441   0.342   0.441
Er14     Er     0.2887   0.6745   0.5584
Er15     Er     0.1916   0.5755   0.5387
Er16     Er     0.2113   0.6745   0.4416
Er17     Er     0.3084   0.5755   0.4613
Er18     Er     0.4416   0.2113   0.6745
Er19     Er     0.5387   0.1916   0.5755
Er20     Er     0.4613   0.3084   0.5755
Er21     Er     0.5584   0.2887   0.6745
Er22     Er     0.9416   0.2887   0.3255
Er23     Er     0.9613   0.1916   0.4245
Er24     Er     0.0387   0.3084   0.4245
Er25     Er     0.0584   0.2113   0.3255
V26     V     0.908   0.309   0.191
V27     V     0.809   0.408   0.191
V28     V     0.809   0.309   0.092
Er29     Er     0.8084   0.0755   0.9613
Er30     Er     0.7887   0.1745   0.0584
Er31     Er     0.6916   0.0755   0.0387
Er32     Er     0.7113   0.1745   0.9416
V33     V     0.691   0.309   0.908
V34     V     0.691   0.408   0.809
V35     V     0.592   0.309   0.809
V36     V     0.342   0.559   0.059
V37     V     0.441   0.559   0.158
V38     V     0.441   0.658   0.059
Er39     Er     0.5584   0.7113   0.8255
Er40     Er     0.4613   0.6916   0.9245
Er41     Er     0.5387   0.8084   0.9245
Er42     Er     0.4416   0.7887   0.8255
V43     V     0.559   0.941   0.158
V44     V     0.658   0.941   0.059
V45     V     0.559   0.842   0.059
V46     V     0.059   0.342   0.559
V47     V     0.158   0.441   0.559
V48     V     0.059   0.441   0.658
Er49     Er     0.9245   0.4613   0.6916
Er50     Er     0.8255   0.5584   0.7113
Er51     Er     0.9245   0.5387   0.8084
Er52     Er     0.8255   0.4416   0.7887
V53     V     0.158   0.559   0.941
V54     V     0.059   0.658   0.941
V55     V     0.059   0.559   0.842
Er56     Er     0.9613   0.8084   0.0755
Er57     Er     0.9416   0.7113   0.1745
Er58     Er     0.0387   0.6916   0.0755
Er59     Er     0.0584   0.7887   0.1745
V60     V     0.908   0.691   0.309
V61     V     0.809   0.691   0.408
V62     V     0.809   0.592   0.309
Er63     Er     0.3255   0.9416   0.2887
Er64     Er     0.4245   0.9613   0.1916
Er65     Er     0.4245   0.0387   0.3084
Er66     Er     0.3255   0.0584   0.2113
V67     V     0.191   0.908   0.309
V68     V     0.191   0.809   0.408
V69     V     0.092   0.809   0.309
V70     V     0.842   0.941   0.941
V71     V     0.941   0.842   0.941
V72     V     0.941   0.941   0.842
Er73     Er     0.2887   0.3255   0.9416
Er74     Er     0.1916   0.4245   0.9613
Er75     Er     0.3084   0.4245   0.0387
Er76     Er     0.2113   0.3255   0.0584
V77     V     0.309   0.191   0.908
V78     V     0.408   0.191   0.809
V79     V     0.309   0.092   0.809
Er80     Er     0.0755   0.9613   0.8084
Er81     Er     0.1745   0.9416   0.7113
Er82     Er     0.0755   0.0387   0.6916
Er83     Er     0.1745   0.0584   0.7887
V84     V     0.309   0.908   0.691
V85     V     0.408   0.809   0.691
V86     V     0.309   0.809   0.592
V87     V     0.842   0.059   0.559
V88     V     0.941   0.059   0.658
V89     V     0.941   0.158   0.559
Er90     Er     0.8084   0.9245   0.5387
Er91     Er     0.7113   0.8255   0.5584
Er92     Er     0.6916   0.9245   0.4613
Er93     Er     0.7887   0.8255   0.4416
V94     V     0.559   0.059   0.342
V95     V     0.658   0.059   0.441
V96     V     0.559   0.158   0.441
V97     V     0.658   0.559   0.559
V98     V     0.559   0.559   0.658
V99     V     0.559   0.658   0.559
Er100     Er     0.4613   0.8084   0.4245
Er101     Er     0.5584   0.7887   0.3255
Er102     Er     0.4416   0.7113   0.3255
Er103     Er     0.5387   0.6916   0.4245
V104     V     0.408   0.691   0.191
V105     V     0.309   0.691   0.092
V106     V     0.309   0.592   0.191
V107     V     0.691   0.908   0.191
V108     V     0.691   0.809   0.092
V109     V     0.592   0.809   0.191
Er110     Er     0.6916   0.4245   0.5387
Er111     Er     0.7113   0.3255   0.4416
Er112     Er     0.8084   0.4245   0.4613
Er113     Er     0.7887   0.3255   0.5584
V114     V     0.691   0.191   0.408
V115     V     0.691   0.092   0.309
V116     V     0.592   0.191   0.309
V117     V     0.191   0.691   0.908
V118     V     0.191   0.592   0.809
V119     V     0.092   0.691   0.809
Er120     Er     0.8084   0.5755   0.0387
Er121     Er     0.7887   0.6745   0.9416
Er122     Er     0.6916   0.5755   0.9613
Er123     Er     0.7113   0.6745   0.0584
Er124     Er     0.0387   0.8084   0.5755
Er125     Er     0.9416   0.7887   0.6745
Er126     Er     0.9613   0.6916   0.5755
Er127     Er     0.0584   0.7113   0.6745
V128     V     0.809   0.809   0.908
V129     V     0.908   0.809   0.809
V130     V     0.809   0.908   0.809
Er131     Er     0.5755   0.0387   0.8084
Er132     Er     0.6745   0.9416   0.7887
Er133     Er     0.5755   0.9613   0.6916
Er134     Er     0.6745   0.0584   0.7113
V135     V     0.908   0.191   0.691
V136     V     0.809   0.092   0.691
V137     V     0.809   0.191   0.592
Er138     Er     0.4245   0.4613   0.8084
Er139     Er     0.3255   0.5584   0.7887
Er140     Er     0.3255   0.4416   0.7113
Er141     Er     0.4245   0.5387   0.6916
V142     V     0.441   0.842   0.559
V143     V     0.342   0.941   0.559
V144     V     0.441   0.941   0.658
V145     V     0.191   0.408   0.691
V146     V     0.092   0.309   0.691
V147     V     0.191   0.309   0.592
Er148     Er     0.5584   0.2113   0.1745
Er149     Er     0.4613   0.1916   0.0755
Er150     Er     0.4416   0.2887   0.1745
Er151     Er     0.5387   0.3084   0.0755
V152     V     0.559   0.441   0.842
V153     V     0.559   0.342   0.941
V154     V     0.658   0.441   0.941
V155     V     0.309   0.408   0.309
V156     V     0.408   0.309   0.309
V157     V     0.309   0.309   0.408
V158     V     0.342   0.059   0.941
V159     V     0.441   0.059   0.842
V160     V     0.441   0.158   0.941
Er161     Er     0.9245   0.0387   0.1916
Er162     Er     0.8255   0.9416   0.2113
Er163     Er     0.9245   0.9613   0.3084
Er164     Er     0.8255   0.0584   0.2887
Er165     Er     0.1916   0.0755   0.4613
Er166     Er     0.2113   0.1745   0.5584
Er167     Er     0.3084   0.0755   0.5387
Er168     Er     0.2887   0.1745   0.4416
V169     V     0.059   0.941   0.342
V170     V     0.158   0.941   0.441
V171     V     0.059   0.842   0.441
Er172     Er     0.1916   0.9245   0.0387
Er173     Er     0.2113   0.8255   0.9416
Er174     Er     0.3084   0.9245   0.9613
Er175     Er     0.2887   0.8255   0.0584
V176     V     0.158   0.059   0.059
V177     V     0.059   0.059   0.158
V178     V     0.059   0.158   0.059
Er179     Er     0.0387   0.1916   0.9245
Er180     Er     0.9416   0.2113   0.8255
Er181     Er     0.9613   0.3084   0.9245
Er182     Er     0.0584   0.2887   0.8255
V183     V     0.941   0.342   0.059
V184     V     0.941   0.441   0.158
V185     V     0.842   0.441   0.059
Er186     Er     0.0755   0.4613   0.1916
Er187     Er     0.1745   0.5584   0.2113
Er188     Er     0.0755   0.5387   0.3084
Er189     Er     0.1745   0.4416   0.2887
V190     V     0.842   0.559   0.441
V191     V     0.941   0.559   0.342
V192     V     0.941   0.658   0.441
loop_
_geom_bond_atom_site_label_1
_geom_bond_atom_site_label_2
_geom_bond_distance
_geom_bond_site_symmetry_2
_ccdc_geom_bond_type
V1     V98    10.001   .     S
V1     V97    10.001   .     S
V1     Er50    10.0   .     S
V1     V2    10.0   .     S
V1     V3    10.0   .     S
V2     V99    10.001   .     S
V2     V97    10.001   .     S
V2     Er91    10.0   .     S
V2     V3    10.0   .     S
V3     V99    10.001   .     S
V3     V98    10.001   .     S
V3     Er39    10.0   .     S
V4     V177    10.001   .     S
V4     V176    10.001   .     S
V4     Er66    10.0   .     S
V4     V5    10.0   .     S
V4     V6    10.0   .     S
V5     V178    10.001   .     S
V5     V176    10.001   .     S
V5     Er76    10.0   .     S
V5     V6    10.0   .     S
V6     V177    10.001   .     S
V6     V178    10.001   .     S
V6     Er25    10.0   .     S
Er7     Er10    10.0   .     S
Er7     Er8    10.0   .     S
Er7     Er9    10.001   .     S
Er7     V62    10.0   .     S
Er8     Er9    10.0   .     S
Er8     Er10    10.001   .     S
Er8     V37    10.0   .     S
Er9     Er10    10.0   .     S
Er9     V27    10.0   .     S
Er10     V12    10.0   .     S
V11     Er17    10.0   .     S
V11     V12    10.0   .     S
V11     V13    10.0   .     S
V11     V157    10.001   .     S
V11     V155    10.001   .     S
V12     V13    10.0   .     S
V12     V156    10.001   .     S
V12     V155    10.001   .     S
V13     Er20    10.0   .     S
V13     V156    10.001   .     S
V13     V157    10.001   .     S
Er14     Er17    10.0   .     S
Er14     Er15    10.0   .     S
Er14     Er16    10.001   .     S
Er14     V86    10.0   .     S
Er15     Er16    10.0   .     S
Er15     Er17    10.001   .     S
Er15     V47    10.0   .     S
Er16     Er17    10.0   .     S
Er16     V68    10.0   .     S
Er18     Er19    10.0   .     S
Er18     Er20    10.0   .     S
Er18     Er21    10.001   .     S
Er18     V78    10.0   .     S
Er19     Er21    10.0   .     S
Er19     Er20    10.001   .     S
Er19     V96    10.0   .     S
Er20     Er21    10.0   .     S
Er21     V35    10.0   .     S
Er22     Er24    10.0   1_655     S
Er22     Er23    10.0   .     S
Er22     Er25    10.001   1_655     S
Er22     V26    10.0   .     S
Er23     Er25    10.0   1_655     S
Er23     Er24    10.001   1_655     S
Er23     V89    10.0   .     S
Er24     Er22    10.0   1_455     S
Er24     Er25    10.0   .     S
Er24     Er23    10.001   1_455     S
Er24     V46    10.0   .     S
Er25     Er23    10.0   1_455     S
Er25     Er22    10.001   1_455     S
V26     V183    10.001   .     S
V26     V184    10.001   .     S
V26     V27    10.0   .     S
V26     V28    10.0   .     S
V27     V185    10.001   .     S
V27     V184    10.001   .     S
V27     V28    10.0   .     S
V28     V185    10.001   .     S
V28     V183    10.001   .     S
V28     Er30    10.0   .     S
Er29     Er32    10.0   .     S
Er29     Er30    10.0   1_556     S
Er29     Er31    10.001   1_556     S
Er29     V70    10.0   1_545     S
Er30     Er29    10.0   1_554     S
Er30     Er31    10.0   .     S
Er30     Er32    10.001   1_554     S
Er31     Er32    10.0   1_554     S
Er31     Er29    10.001   1_554     S
Er31     V44    10.0   1_545     S
Er32     Er31    10.0   1_556     S
Er32     Er30    10.001   1_556     S
Er32     V33    10.0   .     S
V33     V154    10.001   .     S
V33     V153    10.001   .     S
V33     V35    10.0   .     S
V33     V34    10.0   .     S
V34     V152    10.001   .     S
V34     V154    10.001   .     S
V34     Er52    10.0   .     S
V34     V35    10.0   .     S
V35     V152    10.001   .     S
V35     V153    10.001   .     S
V36     V105    10.001   .     S
V36     V106    10.001   .     S
V36     Er75    10.0   .     S
V36     V38    10.0   .     S
V36     V37    10.0   .     S
V37     V106    10.001   .     S
V37     V104    10.001   .     S
V37     V38    10.0   .     S
V38     V105    10.001   .     S
V38     V104    10.001   .     S
V38     Er40    10.0   1_554     S
Er39     Er40    10.0   .     S
Er39     Er41    10.0   .     S
Er39     Er42    10.001   .     S
Er40     V38    10.0   1_556     S
Er40     Er42    10.0   .     S
Er40     Er41    10.001   .     S
Er41     Er42    10.0   .     S
Er41     V45    10.0   1_556     S
Er42     V85    10.0   .     S
V43     V107    10.001   .     S
V43     V109    10.001   .     S
V43     Er64    10.0   .     S
V43     V44    10.0   .     S
V43     V45    10.0   .     S
V44     V108    10.001   .     S
V44     V107    10.001   .     S
V44     Er31    10.0   1_565     S
V44     V45    10.0   .     S
V45     V108    10.001   .     S
V45     V109    10.001   .     S
V45     Er41    10.0   1_554     S
V46     V146    10.001   .     S
V46     V147    10.001   .     S
V46     V48    10.0   .     S
V46     V47    10.0   .     S
V47     V147    10.001   .     S
V47     V145    10.001   .     S
V47     V48    10.0   .     S
V48     V145    10.001   .     S
V48     V146    10.001   .     S
V48     Er49    10.0   1_455     S
Er49     V48    10.0   1_655     S
Er49     Er52    10.0   .     S
Er49     Er50    10.0   .     S
Er49     Er51    10.001   .     S
Er50     Er51    10.0   .     S
Er50     Er52    10.001   .     S
Er51     Er52    10.0   .     S
Er51     V55    10.0   1_655     S
V53     V117    10.001   .     S
V53     V118    10.001   .     S
V53     Er74    10.0   .     S
V53     V54    10.0   .     S
V53     V55    10.0   .     S
V54     V119    10.001   .     S
V54     V117    10.001   .     S
V54     Er58    10.0   1_556     S
V54     V55    10.0   .     S
V55     V119    10.001   .     S
V55     V118    10.001   .     S
V55     Er51    10.0   1_455     S
Er56     Er57    10.0   .     S
Er56     Er59    10.0   1_655     S
Er56     Er58    10.001   1_655     S
Er56     V71    10.0   1_554     S
Er57     Er58    10.0   1_655     S
Er57     Er59    10.001   1_655     S
Er57     V60    10.0   .     S
Er58     V54    10.0   1_554     S
Er58     Er57    10.0   1_455     S
Er58     Er59    10.0   .     S
Er58     Er56    10.001   1_455     S
Er59     Er56    10.0   1_455     S
Er59     Er57    10.001   1_455     S
Er59     V69    10.0   .     S
V60     V191    10.001   .     S
V60     V192    10.001   .     S
V60     V62    10.0   .     S
V60     V61    10.0   .     S
V61     V190    10.001   .     S
V61     V192    10.001   .     S
V61     Er93    10.0   .     S
V61     V62    10.0   .     S
V62     V190    10.001   .     S
V62     V191    10.001   .     S
Er63     Er65    10.0   1_565     S
Er63     Er64    10.0   .     S
Er63     Er66    10.001   1_565     S
Er63     V67    10.0   .     S
Er64     Er66    10.0   1_565     S
Er64     Er65    10.001   1_565     S
Er65     Er63    10.0   1_545     S
Er65     Er66    10.0   .     S
Er65     Er64    10.001   1_545     S
Er65     V94    10.0   .     S
Er66     Er64    10.0   1_545     S
Er66     Er63    10.001   1_545     S
V67     V169    10.001   .     S
V67     V170    10.001   .     S
V67     V68    10.0   .     S
V67     V69    10.0   .     S
V68     V171    10.001   .     S
V68     V170    10.001   .     S
V68     V69    10.0   .     S
V69     V171    10.001   .     S
V69     V169    10.001   .     S
V70     V128    10.001   .     S
V70     V130    10.001   .     S
V70     Er29    10.0   1_565     S
V70     V72    10.0   .     S
V70     V71    10.0   .     S
V71     V129    10.001   .     S
V71     V128    10.001   .     S
V71     Er56    10.0   1_556     S
V71     V72    10.0   .     S
V72     V129    10.001   .     S
V72     V130    10.001   .     S
V72     Er80    10.0   1_655     S
Er73     Er75    10.0   1_556     S
Er73     Er74    10.0   .     S
Er73     Er76    10.001   1_556     S
Er73     V77    10.0   .     S
Er74     Er76    10.0   1_556     S
Er74     Er75    10.001   1_556     S
Er75     Er73    10.0   1_554     S
Er75     Er76    10.0   .     S
Er75     Er74    10.001   1_554     S
Er76     Er74    10.0   1_554     S
Er76     Er73    10.001   1_554     S
V77     V160    10.001   .     S
V77     V158    10.001   .     S
V77     V79    10.0   .     S
V77     V78    10.0   .     S
V78     V160    10.001   .     S
V78     V159    10.001   .     S
V78     V79    10.0   .     S
V79     V158    10.001   .     S
V79     V159    10.001   .     S
V79     Er83    10.0   .     S
Er80     V72    10.0   1_455     S
Er80     Er81    10.0   .     S
Er80     Er83    10.0   1_565     S
Er80     Er82    10.001   1_565     S
Er81     Er82    10.0   1_565     S
Er81     Er83    10.001   1_565     S
Er81     V84    10.0   .     S
Er82     Er81    10.0   1_545     S
Er82     Er83    10.0   .     S
Er82     Er80    10.001   1_545     S
Er82     V88    10.0   1_455     S
Er83     Er80    10.0   1_545     S
Er83     Er81    10.001   1_545     S
V84     V144    10.001   .     S
V84     V143    10.001   .     S
V84     V86    10.0   .     S
V84     V85    10.0   .     S
V85     V142    10.001   .     S
V85     V144    10.001   .     S
V85     V86    10.0   .     S
V86     V142    10.001   .     S
V86     V143    10.001   .     S
V87     V136    10.001   .     S
V87     V137    10.001   .     S
V87     Er90    10.0   1_545     S
V87     V88    10.0   .     S
V87     V89    10.0   .     S
V88     V136    10.001   .     S
V88     V135    10.001   .     S
V88     Er82    10.0   1_655     S
V88     V89    10.0   .     S
V89     V135    10.001   .     S
V89     V137    10.001   .     S
Er90     V87    10.0   1_565     S
Er90     Er91    10.0   .     S
Er90     Er93    10.0   .     S
Er90     Er92    10.001   .     S
Er91     Er92    10.0   .     S
Er91     Er93    10.001   .     S
Er92     Er93    10.0   .     S
Er92     V95    10.0   1_565     S
V94     V115    10.001   .     S
V94     V116    10.001   .     S
V94     V96    10.0   .     S
V94     V95    10.0   .     S
V95     V115    10.001   .     S
V95     V114    10.001   .     S
V95     Er92    10.0   1_545     S
V95     V96    10.0   .     S
V96     V116    10.001   .     S
V96     V114    10.001   .     S
V97     Er110    10.0   .     S
V97     V98    10.0   .     S
V97     V99    10.0   .     S
V98     Er141    10.0   .     S
V98     V99    10.0   .     S
V99     Er103    10.0   .     S
Er100     Er102    10.0   .     S
Er100     Er101    10.0   .     S
Er100     Er103    10.001   .     S
Er100     V142    10.0   .     S
Er101     Er103    10.0   .     S
Er101     Er102    10.001   .     S
Er101     V109    10.0   .     S
Er102     Er103    10.0   .     S
Er102     V104    10.0   .     S
V104     V105    10.0   .     S
V104     V106    10.0   .     S
V105     Er175    10.0   .     S
V105     V106    10.0   .     S
V106     Er187    10.0   .     S
V107     Er162    10.0   .     S
V107     V109    10.0   .     S
V107     V108    10.0   .     S
V108     Er123    10.0   .     S
V108     V109    10.0   .     S
Er110     Er113    10.0   .     S
Er110     Er111    10.0   .     S
Er110     Er112    10.001   .     S
Er111     Er112    10.0   .     S
Er111     Er113    10.001   .     S
Er111     V114    10.0   .     S
Er112     Er113    10.0   .     S
Er112     V190    10.0   .     S
Er113     V137    10.0   .     S
V114     V115    10.0   .     S
V114     V116    10.0   .     S
V115     Er164    10.0   .     S
V115     V116    10.0   .     S
V116     Er148    10.0   .     S
V117     Er173    10.0   .     S
V117     V118    10.0   .     S
V117     V119    10.0   .     S
V118     Er139    10.0   .     S
V118     V119    10.0   .     S
V119     Er127    10.0   .     S
Er120     Er123    10.0   .     S
Er120     Er121    10.0   1_554     S
Er120     Er122    10.001   1_554     S
Er120     V185    10.0   .     S
Er121     Er120    10.0   1_556     S
Er121     Er122    10.0   .     S
Er121     Er123    10.001   1_556     S
Er121     V128    10.0   .     S
Er122     Er123    10.0   1_556     S
Er122     Er120    10.001   1_556     S
Er122     V154    10.0   .     S
Er123     Er122    10.0   1_554     S
Er123     Er121    10.001   1_554     S
Er124     Er127    10.0   .     S
Er124     Er125    10.0   1_455     S
Er124     Er126    10.001   1_455     S
Er124     V171    10.0   .     S
Er125     Er124    10.0   1_655     S
Er125     Er126    10.0   .     S
Er125     Er127    10.001   1_655     S
Er125     V129    10.0   .     S
Er126     Er127    10.0   1_655     S
Er126     Er124    10.001   1_655     S
Er126     V192    10.0   .     S
Er127     Er126    10.0   1_455     S
Er127     Er125    10.001   1_455     S
V128     V129    10.0   .     S
V128     V130    10.0   .     S
V129     V130    10.0   .     S
V130     Er132    10.0   .     S
Er131     Er134    10.0   .     S
Er131     Er132    10.0   1_545     S
Er131     Er133    10.001   1_545     S
Er131     V159    10.0   .     S
Er132     Er131    10.0   1_565     S
Er132     Er133    10.0   .     S
Er132     Er134    10.001   1_565     S
Er133     Er134    10.0   1_565     S
Er133     Er131    10.001   1_565     S
Er133     V144    10.0   .     S
Er134     Er133    10.0   1_545     S
Er134     Er132    10.001   1_545     S
Er134     V136    10.0   .     S
V135     Er180    10.0   .     S
V135     V137    10.0   .     S
V135     V136    10.0   .     S
V136     V137    10.0   .     S
Er138     Er140    10.0   .     S
Er138     Er139    10.0   .     S
Er138     Er141    10.001   .     S
Er138     V152    10.0   .     S
Er139     Er141    10.0   .     S
Er139     Er140    10.001   .     S
Er140     Er141    10.0   .     S
Er140     V145    10.0   .     S
V142     V144    10.0   .     S
V142     V143    10.0   .     S
V143     Er167    10.0   1_565     S
V143     V144    10.0   .     S
V145     V147    10.0   .     S
V145     V146    10.0   .     S
V146     Er182    10.0   .     S
V146     V147    10.0   .     S
V147     Er166    10.0   .     S
Er148     Er149    10.0   .     S
Er148     Er151    10.0   .     S
Er148     Er150    10.001   .     S
Er149     Er150    10.0   .     S
Er149     Er151    10.001   .     S
Er149     V160    10.0   1_554     S
Er150     Er151    10.0   .     S
Er150     V156    10.0   .     S
Er151     V153    10.0   1_554     S
V152     V153    10.0   .     S
V152     V154    10.0   .     S
V153     Er151    10.0   1_556     S
V153     V154    10.0   .     S
V155     Er189    10.0   .     S
V155     V157    10.0   .     S
V155     V156    10.0   .     S
V156     V157    10.0   .     S
V157     Er168    10.0   .     S
V158     Er174    10.0   1_545     S
V158     V159    10.0   .     S
V158     V160    10.0   .     S
V159     V160    10.0   .     S
V160     Er149    10.0   1_556     S
Er161     Er164    10.0   .     S
Er161     Er162    10.0   1_545     S
Er161     Er163    10.001   1_545     S
Er161     V177    10.0   1_655     S
Er162     Er161    10.0   1_565     S
Er162     Er163    10.0   .     S
Er162     Er164    10.001   1_565     S
Er163     Er164    10.0   1_565     S
Er163     Er161    10.001   1_565     S
Er163     V169    10.0   1_655     S
Er164     Er163    10.0   1_545     S
Er164     Er162    10.001   1_545     S
Er165     Er168    10.0   .     S
Er165     Er166    10.0   .     S
Er165     Er167    10.001   .     S
Er165     V170    10.0   1_545     S
Er166     Er167    10.0   .     S
Er166     Er168    10.001   .     S
Er167     V143    10.0   1_545     S
Er167     Er168    10.0   .     S
V169     Er163    10.0   1_455     S
V169     V170    10.0   .     S
V169     V171    10.0   .     S
V170     Er165    10.0   1_565     S
V170     V171    10.0   .     S
Er172     Er175    10.0   .     S
Er172     Er173    10.0   1_554     S
Er172     Er174    10.001   1_554     S
Er172     V176    10.0   1_565     S
Er173     Er172    10.0   1_556     S
Er173     Er174    10.0   .     S
Er173     Er175    10.001   1_556     S
Er174     V158    10.0   1_565     S
Er174     Er175    10.0   1_556     S
Er174     Er172    10.001   1_556     S
Er175     Er174    10.0   1_554     S
Er175     Er173    10.001   1_554     S
V176     Er172    10.0   1_545     S
V176     V177    10.0   .     S
V176     V178    10.0   .     S
V177     Er161    10.0   1_455     S
V177     V178    10.0   .     S
V178     Er179    10.0   1_554     S
Er179     V178    10.0   1_556     S
Er179     Er182    10.0   .     S
Er179     Er180    10.0   1_455     S
Er179     Er181    10.001   1_455     S
Er180     Er179    10.0   1_655     S
Er180     Er181    10.0   .     S
Er180     Er182    10.001   1_655     S
Er181     Er182    10.0   1_655     S
Er181     Er179    10.001   1_655     S
Er181     V183    10.0   1_556     S
Er182     Er181    10.0   1_455     S
Er182     Er180    10.001   1_455     S
V183     Er181    10.0   1_554     S
V183     V184    10.0   .     S
V183     V185    10.0   .     S
V184     Er186    10.0   1_655     S
V184     V185    10.0   .     S
Er186     V184    10.0   1_455     S
Er186     Er189    10.0   .     S
Er186     Er187    10.0   .     S
Er186     Er188    10.001   .     S
Er187     Er188    10.0   .     S
Er187     Er189    10.001   .     S
Er188     Er189    10.0   .     S
Er188     V191    10.0   1_455     S
V190     V192    10.0   .     S
V190     V191    10.0   .     S
V191     Er188    10.0   1_655     S
V191     V192    10.0   .     S
