data_icda
_audit_creation_date              2020-02-04
_audit_creation_method            'Pymatgen'
_symmetry_space_group_name_H-M    'P1'
_symmetry_Int_Tables_number       1
loop_
_symmetry_equiv_pos_as_xyz
  x,y,z
_cell_length_a                    69.9686
_cell_length_b                    69.9686
_cell_length_c                    69.9686
_cell_angle_alpha                 90.0
_cell_angle_beta                 90.0
_cell_angle_gamma                 90.0
loop_
_atom_site_label
_atom_site_type_symbol
_atom_site_fract_x
_atom_site_fract_y
_atom_site_fract_z
V1     V     0.5745   0.9285   0.25
V2     V     0.5745   0.0715   0.25
V3     V     0.6755   0.0   0.1785
V4     V     0.6755   0.0   0.3215
Er5     Er     0.7774   0.5745   0.066
Er6     Er     0.7226   0.5745   0.934
Er7     Er     0.816   0.6755   0.9726
Er8     Er     0.684   0.6755   0.0274
V9     V     0.25   0.5745   0.9285
V10     V     0.25   0.5745   0.0715
V11     V     0.1785   0.6755   0.0
V12     V     0.3215   0.6755   0.0
Er13     Er     0.934   0.7774   0.0745
Er14     Er     0.066   0.7226   0.0745
Er15     Er     0.9726   0.684   0.1755
Er16     Er     0.0274   0.816   0.1755
V17     V     0.9285   0.25   0.5745
V18     V     0.0715   0.25   0.5745
V19     V     0.0   0.1785   0.6755
V20     V     0.0   0.3215   0.6755
Er21     Er     0.0745   0.934   0.7774
Er22     Er     0.0745   0.066   0.7226
Er23     Er     0.1755   0.9726   0.684
Er24     Er     0.1755   0.0274   0.816
Er25     Er     0.7226   0.0745   0.066
Er26     Er     0.7774   0.0745   0.934
Er27     Er     0.816   0.1755   0.0274
Er28     Er     0.684   0.1755   0.9726
V29     V     0.3245   0.0   0.8215
V30     V     0.3245   0.0   0.6785
V31     V     0.4255   0.9285   0.75
V32     V     0.4255   0.0715   0.75
Er33     Er     0.184   0.1755   0.5274
Er34     Er     0.316   0.1755   0.4726
Er35     Er     0.2774   0.0745   0.566
Er36     Er     0.2226   0.0745   0.434
V37     V     0.6755   0.5   0.8215
V38     V     0.6755   0.5   0.6785
V39     V     0.5745   0.5715   0.75
V40     V     0.5745   0.4285   0.75
Er41     Er     0.5274   0.684   0.8245
Er42     Er     0.4726   0.816   0.8245
Er43     Er     0.566   0.7774   0.9255
Er44     Er     0.434   0.7226   0.9255
Er45     Er     0.9255   0.066   0.2226
Er46     Er     0.9255   0.934   0.2774
Er47     Er     0.8245   0.0274   0.316
Er48     Er     0.8245   0.9726   0.184
V49     V     0.8215   0.8245   0.0
V50     V     0.6785   0.8245   0.0
V51     V     0.75   0.9255   0.0715
V52     V     0.75   0.9255   0.9285
Er53     Er     0.6755   0.9726   0.816
Er54     Er     0.6755   0.0274   0.684
Er55     Er     0.5745   0.066   0.7774
Er56     Er     0.5745   0.934   0.7226
V57     V     0.8215   0.1755   0.5
V58     V     0.6785   0.1755   0.5
V59     V     0.75   0.0745   0.4285
V60     V     0.75   0.0745   0.5715
Er61     Er     0.4726   0.184   0.6755
Er62     Er     0.5274   0.316   0.6755
Er63     Er     0.566   0.2226   0.5745
Er64     Er     0.434   0.2774   0.5745
V65     V     0.1785   0.3245   0.5
V66     V     0.3215   0.3245   0.5
V67     V     0.25   0.4255   0.4285
V68     V     0.25   0.4255   0.5715
V69     V     0.8245   0.5   0.1785
V70     V     0.8245   0.5   0.3215
V71     V     0.9255   0.5715   0.25
V72     V     0.9255   0.4285   0.25
Er73     Er     0.816   0.3245   0.5274
Er74     Er     0.684   0.3245   0.4726
Er75     Er     0.7226   0.4255   0.566
Er76     Er     0.7774   0.4255   0.434
V77     V     0.0745   0.9285   0.25
V78     V     0.0745   0.0715   0.25
V79     V     0.1755   0.0   0.3215
V80     V     0.1755   0.0   0.1785
Er81     Er     0.934   0.2226   0.4255
Er82     Er     0.066   0.2774   0.4255
Er83     Er     0.9726   0.316   0.3245
Er84     Er     0.0274   0.184   0.3245
V85     V     0.0   0.8215   0.3245
V86     V     0.0   0.6785   0.3245
V87     V     0.9285   0.75   0.4255
V88     V     0.0715   0.75   0.4255
Er89     Er     0.1755   0.5274   0.184
Er90     Er     0.1755   0.4726   0.316
Er91     Er     0.0745   0.566   0.2774
Er92     Er     0.0745   0.434   0.2226
V93     V     0.5   0.8215   0.6755
V94     V     0.5   0.6785   0.6755
V95     V     0.5715   0.75   0.5745
V96     V     0.4285   0.75   0.5745
Er97     Er     0.3245   0.5274   0.816
Er98     Er     0.3245   0.4726   0.684
Er99     Er     0.4255   0.566   0.7226
Er100     Er     0.4255   0.434   0.7774
Er101     Er     0.066   0.7774   0.5745
Er102     Er     0.934   0.7226   0.5745
Er103     Er     0.9726   0.816   0.6755
Er104     Er     0.0274   0.684   0.6755
Er105     Er     0.684   0.8245   0.5274
Er106     Er     0.816   0.8245   0.4726
Er107     Er     0.7226   0.9255   0.434
Er108     Er     0.7774   0.9255   0.566
V109     V     0.8245   0.0   0.8215
V110     V     0.8245   0.0   0.6785
V111     V     0.9255   0.9285   0.75
V112     V     0.9255   0.0715   0.75
Er113     Er     0.066   0.2226   0.9255
Er114     Er     0.934   0.2774   0.9255
Er115     Er     0.9726   0.184   0.8245
Er116     Er     0.0274   0.316   0.8245
V117     V     0.1755   0.5   0.8215
V118     V     0.1755   0.5   0.6785
V119     V     0.0745   0.4285   0.75
V120     V     0.0745   0.5715   0.75
Er121     Er     0.316   0.6755   0.5274
Er122     Er     0.184   0.6755   0.4726
Er123     Er     0.2226   0.5745   0.566
Er124     Er     0.2774   0.5745   0.434
V125     V     0.3245   0.5   0.1785
V126     V     0.3245   0.5   0.3215
V127     V     0.4255   0.4285   0.25
V128     V     0.4255   0.5715   0.25
V129     V     0.5   0.1785   0.8245
V130     V     0.5   0.3215   0.8245
V131     V     0.5715   0.25   0.9255
V132     V     0.4285   0.25   0.9255
V133     V     0.9285   0.25   0.0745
V134     V     0.0715   0.25   0.0745
V135     V     0.0   0.3215   0.1755
V136     V     0.0   0.1785   0.1755
Er137     Er     0.2774   0.4255   0.066
Er138     Er     0.2226   0.4255   0.934
Er139     Er     0.316   0.3245   0.9726
Er140     Er     0.184   0.3245   0.0274
V141     V     0.8215   0.3245   0.0
V142     V     0.6785   0.3245   0.0
V143     V     0.75   0.4255   0.9285
V144     V     0.75   0.4255   0.0715
Er145     Er     0.5274   0.184   0.1755
Er146     Er     0.4726   0.316   0.1755
Er147     Er     0.566   0.2774   0.0745
Er148     Er     0.434   0.2226   0.0745
V149     V     0.5   0.3215   0.3245
V150     V     0.5   0.1785   0.3245
V151     V     0.4285   0.25   0.4255
V152     V     0.5715   0.25   0.4255
V153     V     0.25   0.0745   0.9285
V154     V     0.25   0.0745   0.0715
V155     V     0.3215   0.1755   0.0
V156     V     0.1785   0.1755   0.0
Er157     Er     0.4255   0.066   0.2774
Er158     Er     0.4255   0.934   0.2226
Er159     Er     0.3245   0.9726   0.316
Er160     Er     0.3245   0.0274   0.184
V161     V     0.5   0.8215   0.1755
V162     V     0.5   0.6785   0.1755
V163     V     0.4285   0.75   0.0745
V164     V     0.5715   0.75   0.0745
Er165     Er     0.6755   0.5274   0.316
Er166     Er     0.6755   0.4726   0.184
Er167     Er     0.5745   0.566   0.2226
Er168     Er     0.5745   0.434   0.2774
V169     V     0.9285   0.75   0.9255
V170     V     0.0715   0.75   0.9255
V171     V     0.0   0.8215   0.8245
V172     V     0.0   0.6785   0.8245
Er173     Er     0.2226   0.9255   0.066
Er174     Er     0.2774   0.9255   0.934
Er175     Er     0.316   0.8245   0.0274
Er176     Er     0.184   0.8245   0.9726
Er177     Er     0.8245   0.4726   0.816
Er178     Er     0.8245   0.5274   0.684
Er179     Er     0.9255   0.434   0.7226
Er180     Er     0.9255   0.566   0.7774
V181     V     0.75   0.5745   0.4285
V182     V     0.75   0.5745   0.5715
V183     V     0.8215   0.6755   0.5
V184     V     0.6785   0.6755   0.5
V185     V     0.1785   0.8245   0.5
V186     V     0.3215   0.8245   0.5
V187     V     0.25   0.9255   0.5715
V188     V     0.25   0.9255   0.4285
Er189     Er     0.5274   0.816   0.3245
Er190     Er     0.4726   0.684   0.3245
Er191     Er     0.566   0.7226   0.4255
Er192     Er     0.434   0.7774   0.4255
loop_
_geom_bond_atom_site_label_1
_geom_bond_atom_site_label_2
_geom_bond_distance
_geom_bond_site_symmetry_2
_ccdc_geom_bond_type
V1     V2    10.0   1_565     S
V1     V4    10.0   1_565     S
V1     V3    10.0   1_565     S
V1     Er189    10.0   .     S
V2     V1    10.0   1_545     S
V2     V4    10.0   .     S
V2     V3    10.0   .     S
V2     Er145    10.0   .     S
V3     V4    10.0   .     S
V3     V1    10.0   1_545     S
V3     Er25    10.0   .     S
V4     V1    10.0   1_545     S
V4     Er107    10.0   1_545     S
Er5     Er6    9.999   1_554     S
Er5     Er8    10.0   .     S
Er5     Er7    10.0   1_554     S
Er5     V69    10.0   .     S
Er6     Er5    9.999   1_556     S
Er6     Er7    10.0   .     S
Er6     Er8    10.0   1_556     S
Er6     V37    10.0   .     S
Er7     Er8    9.999   1_556     S
Er7     Er5    10.0   1_556     S
Er7     V169    10.0   .     S
Er8     Er7    9.999   1_554     S
Er8     Er6    10.0   1_554     S
Er8     V164    10.0   .     S
V9     V10    10.0   1_556     S
V9     V11    10.0   1_556     S
V9     V12    10.0   1_556     S
V9     Er97    10.0   .     S
V10     V9    10.0   1_554     S
V10     V11    10.0   .     S
V10     V12    10.0   .     S
V10     Er89    10.0   .     S
V11     V12    10.0   .     S
V11     V9    10.0   1_554     S
V11     Er14    10.0   .     S
V12     V9    10.0   1_554     S
V12     Er44    10.0   1_554     S
Er13     Er14    9.999   1_655     S
Er13     Er15    10.0   .     S
Er13     Er16    10.0   1_655     S
Er13     V49    10.0   .     S
Er14     Er13    9.999   1_455     S
Er14     Er16    10.0   .     S
Er14     Er15    10.0   1_455     S
Er15     Er16    9.999   1_655     S
Er15     Er14    10.0   1_655     S
Er15     V71    10.0   .     S
Er16     Er15    9.999   1_455     S
Er16     Er13    10.0   1_455     S
Er16     V77    10.0   .     S
V17     V18    10.0   1_655     S
V17     V19    10.0   1_655     S
V17     V20    10.0   1_655     S
V17     Er73    10.0   .     S
V18     V17    10.0   1_455     S
V18     V19    10.0   .     S
V18     V20    10.0   .     S
V18     Er33    10.0   .     S
V19     V17    10.0   1_455     S
V19     V20    10.0   .     S
V19     Er22    10.0   .     S
V20     V17    10.0   1_455     S
V20     Er179    10.0   1_455     S
Er21     Er22    9.999   1_565     S
Er21     Er23    10.0   .     S
Er21     Er24    10.0   1_565     S
Er21     V171    10.0   .     S
Er22     Er21    9.999   1_545     S
Er22     Er24    10.0   .     S
Er22     Er23    10.0   1_545     S
Er23     Er24    9.999   1_565     S
Er23     Er22    10.0   1_565     S
Er23     V187    10.0   .     S
Er24     Er23    9.999   1_545     S
Er24     Er21    10.0   1_545     S
Er24     V153    10.0   .     S
Er25     Er26    9.999   1_554     S
Er25     Er27    10.0   .     S
Er25     Er28    10.0   1_554     S
Er26     Er25    9.999   1_556     S
Er26     Er27    10.0   1_556     S
Er26     Er28    10.0   .     S
Er26     V109    10.0   .     S
Er27     Er28    9.999   1_554     S
Er27     Er26    10.0   1_554     S
Er27     V133    10.0   .     S
Er28     Er27    9.999   1_556     S
Er28     Er25    10.0   1_556     S
Er28     V131    10.0   .     S
V29     V30    10.0   .     S
V29     V31    10.0   1_545     S
V29     V32    10.0   .     S
V29     Er174    10.0   1_545     S
V30     V32    10.0   .     S
V30     V31    10.0   1_545     S
V30     Er35    10.0   .     S
V31     V29    10.0   1_565     S
V31     V30    10.0   1_565     S
V31     V32    10.0   1_565     S
V31     Er42    10.0   .     S
V32     V31    10.0   1_545     S
V32     Er61    10.0   .     S
Er33     Er34    9.999   .     S
Er33     Er36    10.0   .     S
Er33     Er35    10.0   .     S
Er34     Er35    10.0   .     S
Er34     Er36    10.0   .     S
Er34     V151    10.0   .     S
Er35     Er36    9.999   .     S
Er36     V79    10.0   .     S
V37     V38    10.0   .     S
V37     V39    10.0   .     S
V37     V40    10.0   .     S
V38     V40    10.0   .     S
V38     V39    10.0   .     S
V38     Er75    10.0   .     S
V39     V40    10.0   .     S
V39     Er41    10.0   .     S
V40     Er62    10.0   .     S
Er41     Er42    9.999   .     S
Er41     Er43    10.0   .     S
Er41     Er44    10.0   .     S
Er42     Er44    10.0   .     S
Er42     Er43    10.0   .     S
Er43     Er44    9.999   .     S
Er43     V50    10.0   1_556     S
Er44     V12    10.0   1_556     S
Er45     Er46    9.999   1_545     S
Er45     Er47    10.0   .     S
Er45     Er48    10.0   1_545     S
Er45     V136    10.0   1_655     S
Er46     Er45    9.999   1_565     S
Er46     Er47    10.0   1_565     S
Er46     Er48    10.0   .     S
Er46     V85    10.0   1_655     S
Er47     Er48    9.999   1_545     S
Er47     Er46    10.0   1_545     S
Er47     V59    10.0   .     S
Er48     Er47    9.999   1_565     S
Er48     Er45    10.0   1_565     S
Er48     V51    10.0   .     S
V49     V50    10.0   .     S
V49     V51    10.0   .     S
V49     V52    10.0   1_554     S
V50     Er43    10.0   1_554     S
V50     V52    10.0   1_554     S
V50     V51    10.0   .     S
V51     V52    10.0   1_554     S
V52     V49    10.0   1_556     S
V52     V50    10.0   1_556     S
V52     V51    10.0   1_556     S
V52     Er53    10.0   .     S
Er53     Er54    9.999   1_565     S
Er53     Er55    10.0   1_565     S
Er53     Er56    10.0   .     S
Er54     Er53    9.999   1_545     S
Er54     Er55    10.0   .     S
Er54     Er56    10.0   1_545     S
Er54     V60    10.0   .     S
Er55     Er56    9.999   1_545     S
Er55     Er53    10.0   1_545     S
Er55     V129    10.0   .     S
Er56     Er55    9.999   1_565     S
Er56     Er54    10.0   1_565     S
Er56     V93    10.0   .     S
V57     V58    10.0   .     S
V57     V59    10.0   .     S
V57     V60    10.0   .     S
V57     Er81    10.0   .     S
V58     V59    10.0   .     S
V58     V60    10.0   .     S
V58     Er63    10.0   .     S
V59     V60    10.0   .     S
Er61     Er62    9.999   .     S
Er61     Er64    10.0   .     S
Er61     Er63    10.0   .     S
Er62     Er63    10.0   .     S
Er62     Er64    10.0   .     S
Er63     Er64    9.999   .     S
Er64     V66    10.0   .     S
V65     V66    10.0   .     S
V65     V68    10.0   .     S
V65     V67    10.0   .     S
V65     Er82    10.0   .     S
V66     V68    10.0   .     S
V66     V67    10.0   .     S
V67     V68    10.0   .     S
V67     Er90    10.0   .     S
V68     Er98    10.0   .     S
V69     V70    10.0   .     S
V69     V71    10.0   .     S
V69     V72    10.0   .     S
V70     V71    10.0   .     S
V70     V72    10.0   .     S
V70     Er76    10.0   .     S
V71     V72    10.0   .     S
V72     Er83    10.0   .     S
Er73     Er74    9.999   .     S
Er73     Er75    10.0   .     S
Er73     Er76    10.0   .     S
Er74     Er75    10.0   .     S
Er74     Er76    10.0   .     S
Er74     V152    10.0   .     S
Er75     Er76    9.999   .     S
V77     V78    10.0   1_565     S
V77     V79    10.0   1_565     S
V77     V80    10.0   1_565     S
V78     V77    10.0   1_545     S
V78     V79    10.0   .     S
V78     V80    10.0   .     S
V78     Er84    10.0   .     S
V79     V77    10.0   1_545     S
V79     V80    10.0   .     S
V80     V77    10.0   1_545     S
V80     Er173    10.0   1_545     S
Er81     Er82    9.999   1_655     S
Er81     Er84    10.0   1_655     S
Er81     Er83    10.0   .     S
Er82     Er81    9.999   1_455     S
Er82     Er84    10.0   .     S
Er82     Er83    10.0   1_455     S
Er83     Er84    9.999   1_655     S
Er83     Er82    10.0   1_655     S
Er84     Er83    9.999   1_455     S
Er84     Er81    10.0   1_455     S
V85     Er46    10.0   1_455     S
V85     V86    10.0   .     S
V85     V87    10.0   1_455     S
V85     V88    10.0   .     S
V86     V88    10.0   .     S
V86     V87    10.0   1_455     S
V86     Er91    10.0   .     S
V87     V85    10.0   1_655     S
V87     V86    10.0   1_655     S
V87     V88    10.0   1_655     S
V87     Er106    10.0   .     S
V88     V87    10.0   1_455     S
V88     Er122    10.0   .     S
Er89     Er90    9.999   .     S
Er89     Er92    10.0   .     S
Er89     Er91    10.0   .     S
Er90     Er91    10.0   .     S
Er90     Er92    10.0   .     S
Er91     Er92    9.999   .     S
Er92     V135    10.0   .     S
V93     V94    10.0   .     S
V93     V96    10.0   .     S
V93     V95    10.0   .     S
V94     V96    10.0   .     S
V94     V95    10.0   .     S
V94     Er99    10.0   .     S
V95     V96    10.0   .     S
V95     Er105    10.0   .     S
V96     Er121    10.0   .     S
Er97     Er98    9.999   .     S
Er97     Er99    10.0   .     S
Er97     Er100    10.0   .     S
Er98     Er99    10.0   .     S
Er98     Er100    10.0   .     S
Er99     Er100    9.999   .     S
Er100     V130    10.0   .     S
Er101     Er102    9.999   1_455     S
Er101     Er104    10.0   .     S
Er101     Er103    10.0   1_455     S
Er101     V185    10.0   .     S
Er102     Er101    9.999   1_655     S
Er102     Er103    10.0   .     S
Er102     Er104    10.0   1_655     S
Er102     V183    10.0   .     S
Er103     Er104    9.999   1_655     S
Er103     Er101    10.0   1_655     S
Er103     V111    10.0   .     S
Er104     Er103    9.999   1_455     S
Er104     Er102    10.0   1_455     S
Er104     V120    10.0   .     S
Er105     Er106    9.999   .     S
Er105     Er107    10.0   .     S
Er105     Er108    10.0   .     S
Er106     Er107    10.0   .     S
Er106     Er108    10.0   .     S
Er107     Er108    9.999   .     S
Er107     V4    10.0   1_565     S
Er108     V110    10.0   1_565     S
V109     V110    10.0   .     S
V109     V112    10.0   .     S
V109     V111    10.0   1_545     S
V110     Er108    10.0   1_545     S
V110     V111    10.0   1_545     S
V110     V112    10.0   .     S
V111     V112    10.0   1_565     S
V111     V109    10.0   1_565     S
V111     V110    10.0   1_565     S
V112     V111    10.0   1_545     S
V112     Er115    10.0   .     S
Er113     Er114    9.999   1_455     S
Er113     Er116    10.0   .     S
Er113     Er115    10.0   1_455     S
Er113     V156    10.0   1_556     S
Er114     Er113    9.999   1_655     S
Er114     Er115    10.0   .     S
Er114     Er116    10.0   1_655     S
Er114     V141    10.0   1_556     S
Er115     Er116    9.999   1_655     S
Er115     Er113    10.0   1_655     S
Er116     Er115    9.999   1_455     S
Er116     Er114    10.0   1_455     S
Er116     V119    10.0   .     S
V117     V118    10.0   .     S
V117     V119    10.0   .     S
V117     V120    10.0   .     S
V117     Er138    10.0   .     S
V118     V119    10.0   .     S
V118     V120    10.0   .     S
V118     Er123    10.0   .     S
V119     V120    10.0   .     S
Er121     Er122    9.999   .     S
Er121     Er123    10.0   .     S
Er121     Er124    10.0   .     S
Er122     Er124    10.0   .     S
Er122     Er123    10.0   .     S
Er123     Er124    9.999   .     S
Er124     V126    10.0   .     S
V125     V126    10.0   .     S
V125     V128    10.0   .     S
V125     V127    10.0   .     S
V125     Er137    10.0   .     S
V126     V128    10.0   .     S
V126     V127    10.0   .     S
V127     V128    10.0   .     S
V127     Er146    10.0   .     S
V128     Er190    10.0   .     S
V129     V130    10.0   .     S
V129     V131    10.0   .     S
V129     V132    10.0   .     S
V130     V131    10.0   .     S
V130     V132    10.0   .     S
V131     V132    10.0   .     S
V132     Er139    10.0   .     S
V133     V134    10.0   1_655     S
V133     V136    10.0   1_655     S
V133     V135    10.0   1_655     S
V134     V133    10.0   1_455     S
V134     V136    10.0   .     S
V134     V135    10.0   .     S
V134     Er140    10.0   .     S
V135     V133    10.0   1_455     S
V135     V136    10.0   .     S
V136     Er45    10.0   1_455     S
V136     V133    10.0   1_455     S
Er137     Er138    9.999   1_554     S
Er137     Er140    10.0   .     S
Er137     Er139    10.0   1_554     S
Er138     Er137    9.999   1_556     S
Er138     Er139    10.0   .     S
Er138     Er140    10.0   1_556     S
Er139     Er140    9.999   1_556     S
Er139     Er137    10.0   1_556     S
Er140     Er139    9.999   1_554     S
Er140     Er138    10.0   1_554     S
V141     Er114    10.0   1_554     S
V141     V142    10.0   .     S
V141     V143    10.0   1_554     S
V141     V144    10.0   .     S
V142     V144    10.0   .     S
V142     V143    10.0   1_554     S
V142     Er147    10.0   .     S
V143     V141    10.0   1_556     S
V143     V142    10.0   1_556     S
V143     V144    10.0   1_556     S
V143     Er177    10.0   .     S
V144     V143    10.0   1_554     S
V144     Er166    10.0   .     S
Er145     Er146    9.999   .     S
Er145     Er147    10.0   .     S
Er145     Er148    10.0   .     S
Er146     Er147    10.0   .     S
Er146     Er148    10.0   .     S
Er147     Er148    9.999   .     S
Er148     V155    10.0   .     S
V149     V150    10.0   .     S
V149     V152    10.0   .     S
V149     V151    10.0   .     S
V149     Er168    10.0   .     S
V150     V152    10.0   .     S
V150     V151    10.0   .     S
V150     Er157    10.0   .     S
V151     V152    10.0   .     S
V153     V154    10.0   1_556     S
V153     V156    10.0   1_556     S
V153     V155    10.0   1_556     S
V154     V153    10.0   1_554     S
V154     V156    10.0   .     S
V154     V155    10.0   .     S
V154     Er160    10.0   .     S
V155     V153    10.0   1_554     S
V155     V156    10.0   .     S
V156     Er113    10.0   1_554     S
V156     V153    10.0   1_554     S
Er157     Er158    9.999   1_545     S
Er157     Er160    10.0   .     S
Er157     Er159    10.0   1_545     S
Er158     Er157    9.999   1_565     S
Er158     Er159    10.0   .     S
Er158     Er160    10.0   1_565     S
Er158     V161    10.0   .     S
Er159     Er160    9.999   1_565     S
Er159     Er157    10.0   1_565     S
Er159     V188    10.0   .     S
Er160     Er159    9.999   1_545     S
Er160     Er158    10.0   1_545     S
V161     V162    10.0   .     S
V161     V163    10.0   .     S
V161     V164    10.0   .     S
V162     V163    10.0   .     S
V162     V164    10.0   .     S
V162     Er167    10.0   .     S
V163     V164    10.0   .     S
V163     Er175    10.0   .     S
Er165     Er166    9.999   .     S
Er165     Er167    10.0   .     S
Er165     Er168    10.0   .     S
Er165     V181    10.0   .     S
Er166     Er167    10.0   .     S
Er166     Er168    10.0   .     S
Er167     Er168    9.999   .     S
V169     V170    10.0   1_655     S
V169     V171    10.0   1_655     S
V169     V172    10.0   1_655     S
V170     V169    10.0   1_455     S
V170     V171    10.0   .     S
V170     V172    10.0   .     S
V170     Er176    10.0   .     S
V171     V169    10.0   1_455     S
V171     V172    10.0   .     S
V172     V169    10.0   1_455     S
V172     Er180    10.0   1_455     S
Er173     Er174    9.999   1_554     S
Er173     Er175    10.0   .     S
Er173     Er176    10.0   1_554     S
Er173     V80    10.0   1_565     S
Er174     Er173    9.999   1_556     S
Er174     Er175    10.0   1_556     S
Er174     Er176    10.0   .     S
Er174     V29    10.0   1_565     S
Er175     Er176    9.999   1_554     S
Er175     Er174    10.0   1_554     S
Er176     Er175    9.999   1_556     S
Er176     Er173    10.0   1_556     S
Er177     Er178    9.999   .     S
Er177     Er180    10.0   .     S
Er177     Er179    10.0   .     S
Er178     Er179    10.0   .     S
Er178     Er180    10.0   .     S
Er178     V182    10.0   .     S
Er179     Er180    9.999   .     S
Er179     V20    10.0   1_655     S
Er180     V172    10.0   1_655     S
V181     V182    10.0   .     S
V181     V184    10.0   .     S
V181     V183    10.0   .     S
V182     V183    10.0   .     S
V182     V184    10.0   .     S
V183     V184    10.0   .     S
V184     Er191    10.0   .     S
V185     V186    10.0   .     S
V185     V187    10.0   .     S
V185     V188    10.0   .     S
V186     V187    10.0   .     S
V186     V188    10.0   .     S
V186     Er192    10.0   .     S
V187     V188    10.0   .     S
Er189     Er190    9.999   .     S
Er189     Er191    10.0   .     S
Er189     Er192    10.0   .     S
Er190     Er191    10.0   .     S
Er190     Er192    10.0   .     S
Er191     Er192    9.999   .     S
