data_jag
_audit_creation_date              2020-02-04
_audit_creation_method            'Pymatgen'
_symmetry_space_group_name_H-M    'P1'
_symmetry_Int_Tables_number       1
loop_
_symmetry_equiv_pos_as_xyz
  x,y,z
_cell_length_a                    87.3433
_cell_length_b                    87.3433
_cell_length_c                    87.3433
_cell_angle_alpha                 90.0
_cell_angle_beta                 90.0
_cell_angle_gamma                 90.0
loop_
_atom_site_label
_atom_site_type_symbol
_atom_site_fract_x
_atom_site_fract_y
_atom_site_fract_z
S1     S     0.7596   0.7596   0.2596
S2     S     0.4904   0.7596   0.9904
S3     S     0.7596   0.4904   0.9904
S4     S     0.5096   0.5096   0.7404
S5     S     0.5096   0.7404   0.5096
S6     S     0.7404   0.5096   0.5096
S7     S     0.9904   0.7596   0.4904
S8     S     0.9904   0.4904   0.7596
S9     S     0.2404   0.7404   0.2404
S10     S     0.4904   0.9904   0.7596
S11     S     0.7596   0.9904   0.4904
S12     S     0.4904   0.4904   0.2596
S13     S     0.7596   0.2596   0.7596
S14     S     0.2404   0.0096   0.5096
S15     S     0.2404   0.5096   0.0096
S16     S     0.4904   0.2596   0.4904
S17     S     0.5096   0.0096   0.2404
S18     S     0.2596   0.7596   0.7596
S19     S     0.2596   0.4904   0.4904
S20     S     0.2404   0.2404   0.7404
S21     S     0.9904   0.2596   0.9904
S22     S     0.2596   0.2596   0.2596
S23     S     0.2596   0.9904   0.9904
S24     S     0.7404   0.2404   0.2404
S25     S     0.9904   0.9904   0.2596
S26     S     0.0096   0.2404   0.5096
S27     S     0.0096   0.5096   0.2404
S28     S     0.0096   0.7404   0.0096
S29     S     0.5096   0.2404   0.0096
S30     S     0.0096   0.0096   0.7404
S31     S     0.7404   0.7404   0.7404
S32     S     0.7404   0.0096   0.0096
Ti33     Ti     0.0846   0.0846   0.0846
Ti34     Ti     0.0846   0.1654   0.1654
Ti35     Ti     0.1654   0.1654   0.0846
Ti36     Ti     0.1654   0.0846   0.1654
Ti37     Ti     0.8346   0.9154   0.8346
Ti38     Ti     0.9154   0.9154   0.9154
Ti39     Ti     0.8346   0.8346   0.9154
Ti40     Ti     0.9154   0.8346   0.8346
Ti41     Ti     0.6654   0.6654   0.0846
Ti42     Ti     0.6654   0.5846   0.1654
Ti43     Ti     0.5846   0.5846   0.0846
Ti44     Ti     0.5846   0.6654   0.1654
Ti45     Ti     0.0846   0.6654   0.6654
Ti46     Ti     0.0846   0.5846   0.5846
Ti47     Ti     0.1654   0.5846   0.6654
Ti48     Ti     0.1654   0.6654   0.5846
Ti49     Ti     0.5846   0.1654   0.6654
Ti50     Ti     0.6654   0.0846   0.6654
Ti51     Ti     0.5846   0.0846   0.5846
Ti52     Ti     0.6654   0.1654   0.5846
Ti53     Ti     0.4154   0.3346   0.8346
Ti54     Ti     0.3346   0.3346   0.9154
Ti55     Ti     0.3346   0.4154   0.8346
Ti56     Ti     0.4154   0.4154   0.9154
Ti57     Ti     0.4154   0.8346   0.3346
Ti58     Ti     0.3346   0.9154   0.3346
Ti59     Ti     0.3346   0.8346   0.4154
Ti60     Ti     0.4154   0.9154   0.4154
Ti61     Ti     0.8346   0.4154   0.3346
Ti62     Ti     0.9154   0.3346   0.3346
Ti63     Ti     0.8346   0.3346   0.4154
Ti64     Ti     0.9154   0.4154   0.4154
V65     V     0.4814   0.4814   0.8486
V66     V     0.4814   0.4014   0.7686
V67     V     0.4014   0.4814   0.7686
V68     V     0.4814   0.8486   0.4814
V69     V     0.4014   0.7686   0.4814
V70     V     0.4814   0.7686   0.4014
V71     V     0.8486   0.4814   0.4814
V72     V     0.7686   0.4014   0.4814
V73     V     0.7686   0.4814   0.4014
V74     V     0.7686   0.8486   0.7686
V75     V     0.7686   0.7686   0.8486
V76     V     0.8486   0.7686   0.7686
V77     V     0.2686   0.4814   0.9014
V78     V     0.3486   0.4814   0.9814
V79     V     0.2686   0.4014   0.9814
V80     V     0.2686   0.2686   0.8486
V81     V     0.3486   0.2686   0.7686
V82     V     0.2686   0.3486   0.7686
V83     V     0.2686   0.9014   0.4814
V84     V     0.3486   0.9814   0.4814
V85     V     0.2686   0.9814   0.4014
V86     V     0.4814   0.2686   0.9014
V87     V     0.4814   0.3486   0.9814
V88     V     0.4014   0.2686   0.9814
V89     V     0.9014   0.4814   0.2686
V90     V     0.9814   0.4814   0.3486
V91     V     0.9814   0.4014   0.2686
V92     V     0.4814   0.9014   0.2686
V93     V     0.4814   0.9814   0.3486
V94     V     0.4014   0.9814   0.2686
V95     V     0.8486   0.2686   0.2686
V96     V     0.7686   0.2686   0.3486
V97     V     0.7686   0.3486   0.2686
V98     V     0.2686   0.8486   0.2686
V99     V     0.3486   0.7686   0.2686
V100     V     0.2686   0.7686   0.3486
V101     V     0.5186   0.1514   0.5186
V102     V     0.5186   0.2314   0.5986
V103     V     0.5986   0.2314   0.5186
V104     V     0.5186   0.7314   0.0986
V105     V     0.5186   0.6514   0.0186
V106     V     0.5986   0.7314   0.0186
V107     V     0.2314   0.2314   0.1514
V108     V     0.1514   0.2314   0.2314
V109     V     0.2314   0.1514   0.2314
V110     V     0.0186   0.5186   0.6514
V111     V     0.0186   0.5986   0.7314
V112     V     0.0986   0.5186   0.7314
V113     V     0.1514   0.0186   0.0186
V114     V     0.2314   0.0986   0.0186
V115     V     0.2314   0.0186   0.0986
V116     V     0.9014   0.2686   0.4814
V117     V     0.9814   0.3486   0.4814
V118     V     0.9814   0.2686   0.4014
V119     V     0.5186   0.5186   0.1514
V120     V     0.5186   0.5986   0.2314
V121     V     0.5986   0.5186   0.2314
V122     V     0.6514   0.7314   0.2314
V123     V     0.7314   0.6514   0.2314
V124     V     0.7314   0.7314   0.1514
V125     V     0.5186   0.0186   0.6514
V126     V     0.5986   0.0186   0.7314
V127     V     0.5186   0.0986   0.7314
V128     V     0.0186   0.1514   0.0186
V129     V     0.0186   0.2314   0.0986
V130     V     0.0986   0.2314   0.0186
V131     V     0.8486   0.9814   0.9814
V132     V     0.7686   0.9814   0.9014
V133     V     0.7686   0.9014   0.9814
V134     V     0.0186   0.6514   0.5186
V135     V     0.0186   0.7314   0.5986
V136     V     0.0986   0.7314   0.5186
V137     V     0.1514   0.5186   0.5186
V138     V     0.2314   0.5986   0.5186
V139     V     0.2314   0.5186   0.5986
V140     V     0.1514   0.7314   0.7314
V141     V     0.2314   0.6514   0.7314
V142     V     0.2314   0.7314   0.6514
V143     V     0.9814   0.8486   0.9814
V144     V     0.9814   0.7686   0.9014
V145     V     0.9014   0.7686   0.9814
V146     V     0.9814   0.9814   0.8486
V147     V     0.9014   0.9814   0.7686
V148     V     0.9814   0.9014   0.7686
V149     V     0.7314   0.0186   0.5986
V150     V     0.6514   0.0186   0.5186
V151     V     0.7314   0.0986   0.5186
V152     V     0.7314   0.1514   0.7314
V153     V     0.7314   0.2314   0.6514
V154     V     0.6514   0.2314   0.7314
V155     V     0.0186   0.0186   0.1514
V156     V     0.0186   0.0986   0.2314
V157     V     0.0986   0.0186   0.2314
Er158     Er     0.3732   0.4531   0.0884
Er159     Er     0.2969   0.3768   0.0884
Er160     Er     0.1268   0.3384   0.2031
Er161     Er     0.2031   0.3384   0.1268
Er162     Er     0.1268   0.5469   0.4116
Er163     Er     0.2031   0.6232   0.4116
Er164     Er     0.0884   0.4531   0.3732
Er165     Er     0.0884   0.3768   0.2969
Er166     Er     0.4116   0.5469   0.1268
Er167     Er     0.4116   0.6232   0.2031
Er168     Er     0.2969   0.6616   0.3732
Er169     Er     0.3732   0.6616   0.2969
Er170     Er     0.0884   0.3732   0.4531
Er171     Er     0.0884   0.2969   0.3768
Er172     Er     0.2031   0.1268   0.3384
Er173     Er     0.1268   0.2031   0.3384
Er174     Er     0.3732   0.0884   0.4531
Er175     Er     0.2969   0.0884   0.3768
Er176     Er     0.1268   0.4116   0.5469
Er177     Er     0.2031   0.4116   0.6232
Er178     Er     0.4116   0.1268   0.5469
Er179     Er     0.4116   0.2031   0.6232
Er180     Er     0.3732   0.2969   0.6616
Er181     Er     0.2969   0.3732   0.6616
Er182     Er     0.4116   0.7031   0.1232
Er183     Er     0.4116   0.6268   0.0469
Er184     Er     0.3732   0.5884   0.9531
Er185     Er     0.2969   0.5884   0.8768
Er186     Er     0.1268   0.7031   0.8384
Er187     Er     0.2031   0.6268   0.8384
Er188     Er     0.0884   0.7969   0.8768
Er189     Er     0.0884   0.8732   0.9531
Er190     Er     0.1268   0.9116   0.0469
Er191     Er     0.2031   0.9116   0.1232
Er192     Er     0.3732   0.7969   0.1616
Er193     Er     0.2969   0.8732   0.1616
Er194     Er     0.2031   0.1232   0.9116
Er195     Er     0.1268   0.0469   0.9116
Er196     Er     0.3732   0.1616   0.7969
Er197     Er     0.2969   0.1616   0.8732
Er198     Er     0.0884   0.9531   0.8732
Er199     Er     0.0884   0.8768   0.7969
Er200     Er     0.4116   0.1232   0.7031
Er201     Er     0.4116   0.0469   0.6268
Er202     Er     0.3732   0.9531   0.5884
Er203     Er     0.2969   0.8768   0.5884
Er204     Er     0.1268   0.8384   0.7031
Er205     Er     0.2031   0.8384   0.6268
Er206     Er     0.3384   0.1268   0.2031
Er207     Er     0.3384   0.2031   0.1268
Er208     Er     0.4531   0.3732   0.0884
Er209     Er     0.3768   0.2969   0.0884
Er210     Er     0.4531   0.0884   0.3732
Er211     Er     0.3768   0.0884   0.2969
Er212     Er     0.6616   0.3732   0.2969
Er213     Er     0.6616   0.2969   0.3732
Er214     Er     0.5469   0.1268   0.4116
Er215     Er     0.6232   0.2031   0.4116
Er216     Er     0.5469   0.4116   0.1268
Er217     Er     0.6232   0.4116   0.2031
Er218     Er     0.1232   0.4116   0.7031
Er219     Er     0.0469   0.4116   0.6268
Er220     Er     0.8384   0.1268   0.7031
Er221     Er     0.8384   0.2031   0.6268
Er222     Er     0.9531   0.3732   0.5884
Er223     Er     0.8768   0.2969   0.5884
Er224     Er     0.1616   0.2969   0.8732
Er225     Er     0.1616   0.3732   0.7969
Er226     Er     0.0469   0.1268   0.9116
Er227     Er     0.1232   0.2031   0.9116
Er228     Er     0.8768   0.0884   0.7969
Er229     Er     0.9531   0.0884   0.8732
Er230     Er     0.7031   0.4116   0.1232
Er231     Er     0.6268   0.4116   0.0469
Er232     Er     0.7031   0.1268   0.8384
Er233     Er     0.6268   0.2031   0.8384
Er234     Er     0.5884   0.3732   0.9531
Er235     Er     0.5884   0.2969   0.8768
Er236     Er     0.7969   0.3732   0.1616
Er237     Er     0.8732   0.2969   0.1616
Er238     Er     0.8732   0.0884   0.9531
Er239     Er     0.7969   0.0884   0.8768
Er240     Er     0.9116   0.2031   0.1232
Er241     Er     0.9116   0.1268   0.0469
Er242     Er     0.1616   0.7969   0.3732
Er243     Er     0.1616   0.8732   0.2969
Er244     Er     0.1232   0.9116   0.2031
Er245     Er     0.0469   0.9116   0.1268
Er246     Er     0.9531   0.8732   0.0884
Er247     Er     0.8768   0.7969   0.0884
Er248     Er     0.8384   0.7031   0.1268
Er249     Er     0.8384   0.6268   0.2031
Er250     Er     0.9531   0.5884   0.3732
Er251     Er     0.8768   0.5884   0.2969
Er252     Er     0.1232   0.7031   0.4116
Er253     Er     0.0469   0.6268   0.4116
Er254     Er     0.7969   0.1616   0.3732
Er255     Er     0.8732   0.1616   0.2969
Er256     Er     0.9116   0.0469   0.1268
Er257     Er     0.9116   0.1232   0.2031
Er258     Er     0.8732   0.9531   0.0884
Er259     Er     0.7969   0.8768   0.0884
Er260     Er     0.7031   0.1232   0.4116
Er261     Er     0.6268   0.0469   0.4116
Er262     Er     0.7031   0.8384   0.1268
Er263     Er     0.6268   0.8384   0.2031
Er264     Er     0.5884   0.9531   0.3732
Er265     Er     0.5884   0.8768   0.2969
Er266     Er     0.1232   0.8384   0.5469
Er267     Er     0.0469   0.8384   0.6232
Er268     Er     0.9531   0.8768   0.6616
Er269     Er     0.8768   0.9531   0.6616
Er270     Er     0.8384   0.1232   0.5469
Er271     Er     0.8384   0.0469   0.6232
Er272     Er     0.9531   0.1616   0.3768
Er273     Er     0.8768   0.1616   0.4531
Er274     Er     0.1232   0.0469   0.3384
Er275     Er     0.0469   0.1232   0.3384
Er276     Er     0.1616   0.9531   0.3768
Er277     Er     0.1616   0.8768   0.4531
Er278     Er     0.7031   0.9116   0.6232
Er279     Er     0.6268   0.9116   0.5469
Er280     Er     0.5884   0.7969   0.3768
Er281     Er     0.5884   0.8732   0.4531
Er282     Er     0.6268   0.7031   0.3384
Er283     Er     0.7031   0.6268   0.3384
Er284     Er     0.8732   0.5884   0.4531
Er285     Er     0.7969   0.5884   0.3768
Er286     Er     0.9116   0.6268   0.5469
Er287     Er     0.9116   0.7031   0.6232
Er288     Er     0.7969   0.8732   0.6616
Er289     Er     0.8732   0.7969   0.6616
Er290     Er     0.3384   0.6232   0.5469
Er291     Er     0.3384   0.5469   0.6232
Er292     Er     0.4531   0.3768   0.6616
Er293     Er     0.3768   0.4531   0.6616
Er294     Er     0.4531   0.6616   0.3768
Er295     Er     0.3768   0.6616   0.4531
Er296     Er     0.6232   0.5469   0.3384
Er297     Er     0.5469   0.6232   0.3384
Er298     Er     0.5469   0.3384   0.6232
Er299     Er     0.6232   0.3384   0.5469
Er300     Er     0.6616   0.3768   0.4531
Er301     Er     0.6616   0.4531   0.3768
Er302     Er     0.8384   0.5469   0.1232
Er303     Er     0.8384   0.6232   0.0469
Er304     Er     0.8768   0.6616   0.9531
Er305     Er     0.9531   0.6616   0.8768
Er306     Er     0.1232   0.5469   0.8384
Er307     Er     0.0469   0.6232   0.8384
Er308     Er     0.1616   0.3768   0.9531
Er309     Er     0.1616   0.4531   0.8768
Er310     Er     0.0469   0.3384   0.1232
Er311     Er     0.1232   0.3384   0.0469
Er312     Er     0.9531   0.3768   0.1616
Er313     Er     0.8768   0.4531   0.1616
Er314     Er     0.6268   0.5469   0.9116
Er315     Er     0.7031   0.6232   0.9116
Er316     Er     0.8732   0.6616   0.7969
Er317     Er     0.7969   0.6616   0.8732
Er318     Er     0.7969   0.3768   0.5884
Er319     Er     0.8732   0.4531   0.5884
Er320     Er     0.9116   0.6232   0.7031
Er321     Er     0.9116   0.5469   0.6268
Er322     Er     0.7031   0.3384   0.6268
Er323     Er     0.6268   0.3384   0.7031
Er324     Er     0.5884   0.4531   0.8732
Er325     Er     0.5884   0.3768   0.7969
Er326     Er     0.3384   0.6268   0.7031
Er327     Er     0.3384   0.7031   0.6268
Er328     Er     0.5469   0.9116   0.6268
Er329     Er     0.6232   0.9116   0.7031
Er330     Er     0.6616   0.7969   0.8732
Er331     Er     0.6616   0.8732   0.7969
Er332     Er     0.3768   0.5884   0.7969
Er333     Er     0.4531   0.5884   0.8732
Er334     Er     0.6232   0.7031   0.9116
Er335     Er     0.5469   0.6268   0.9116
Er336     Er     0.4531   0.8732   0.5884
Er337     Er     0.3768   0.7969   0.5884
Er338     Er     0.5469   0.1232   0.8384
Er339     Er     0.6232   0.0469   0.8384
Er340     Er     0.6616   0.8768   0.9531
Er341     Er     0.6616   0.9531   0.8768
Er342     Er     0.5469   0.8384   0.1232
Er343     Er     0.6232   0.8384   0.0469
Er344     Er     0.3768   0.1616   0.9531
Er345     Er     0.4531   0.1616   0.8768
Er346     Er     0.3384   0.1232   0.0469
Er347     Er     0.3384   0.0469   0.1232
Er348     Er     0.3768   0.9531   0.1616
Er349     Er     0.4531   0.8768   0.1616
V350     V     0.6514   0.5186   0.0186
V351     V     0.7314   0.5986   0.0186
V352     V     0.7314   0.5186   0.0986
Ce353     Ce     0.6668   0.1668   0.9399
Ce354     Ce     0.8332   0.9168   0.1899
Ce355     Ce     0.0832   0.5832   0.9399
Ce356     Ce     0.9168   0.1899   0.8332
Ce357     Ce     0.5832   0.0832   0.9399
Ce358     Ce     0.8101   0.1668   0.0832
Ce359     Ce     0.1899   0.8332   0.9168
Ce360     Ce     0.1899   0.9168   0.8332
Ce361     Ce     0.1668   0.9399   0.6668
Ce362     Ce     0.0832   0.9399   0.5832
Ce363     Ce     0.0832   0.8101   0.1668
Ce364     Ce     0.8101   0.0832   0.1668
Ce365     Ce     0.9399   0.5832   0.0832
Ce366     Ce     0.5832   0.9399   0.0832
Ce367     Ce     0.0832   0.1668   0.8101
Ce368     Ce     0.1668   0.8101   0.0832
Ce369     Ce     0.0601   0.3332   0.8332
Ce370     Ce     0.1668   0.0832   0.8101
Ce371     Ce     0.9399   0.6668   0.1668
Ce372     Ce     0.6668   0.5832   0.8101
Ce373     Ce     0.9168   0.4168   0.0601
Ce374     Ce     0.9168   0.0601   0.4168
Ce375     Ce     0.5832   0.8101   0.6668
Ce376     Ce     0.4168   0.9168   0.0601
Ce377     Ce     0.0601   0.4168   0.9168
Ce378     Ce     0.6668   0.8101   0.5832
Ce379     Ce     0.5832   0.6668   0.8101
Ce380     Ce     0.0601   0.9168   0.4168
Ce381     Ce     0.3332   0.0601   0.8332
Ce382     Ce     0.8101   0.6668   0.5832
Ce383     Ce     0.8101   0.5832   0.6668
Ce384     Ce     0.4168   0.0601   0.9168
Ce385     Ce     0.3332   0.8332   0.0601
Ce386     Ce     0.1668   0.6668   0.9399
Ce387     Ce     0.8332   0.0601   0.3332
Ce388     Ce     0.9399   0.1668   0.6668
Ce389     Ce     0.9399   0.0832   0.5832
Ce390     Ce     0.6668   0.9399   0.1668
Ce391     Ce     0.9168   0.3332   0.6899
Ce392     Ce     0.8332   0.3332   0.0601
Ce393     Ce     0.9168   0.9168   0.5601
Ce394     Ce     0.9168   0.6899   0.3332
Ce395     Ce     0.8332   0.5601   0.8332
Ce396     Ce     0.8332   0.6899   0.4168
Ce397     Ce     0.9168   0.5601   0.9168
Ce398     Ce     0.6899   0.8332   0.4168
Ce399     Ce     0.6899   0.9168   0.3332
Ce400     Ce     0.9168   0.8332   0.1899
Ce401     Ce     0.5601   0.9168   0.9168
Ce402     Ce     0.5601   0.8332   0.8332
Ce403     Ce     0.8332   0.1899   0.9168
Ce404     Ce     0.8332   0.4168   0.6899
Ce405     Ce     0.8332   0.8332   0.5601
Ce406     Ce     0.6899   0.4168   0.8332
Ce407     Ce     0.0601   0.8332   0.3332
Ce408     Ce     0.4168   0.8332   0.6899
Ce409     Ce     0.1899   0.3332   0.4168
Ce410     Ce     0.3332   0.9168   0.6899
Ce411     Ce     0.4168   0.6899   0.8332
Ce412     Ce     0.6899   0.3332   0.9168
Ce413     Ce     0.3332   0.3332   0.5601
Ce414     Ce     0.3332   0.4168   0.1899
Ce415     Ce     0.3332   0.6899   0.9168
Ce416     Ce     0.0832   0.3101   0.6668
Ce417     Ce     0.6668   0.0832   0.3101
Ce418     Ce     0.5832   0.3101   0.1668
Ce419     Ce     0.1668   0.4399   0.1668
Ce420     Ce     0.3101   0.6668   0.0832
Ce421     Ce     0.3101   0.5832   0.1668
Ce422     Ce     0.1668   0.5832   0.3101
Ce423     Ce     0.4168   0.3332   0.1899
Ce424     Ce     0.5832   0.1668   0.3101
Ce425     Ce     0.1899   0.4168   0.3332
Ce426     Ce     0.0832   0.0832   0.4399
Ce427     Ce     0.4399   0.1668   0.1668
Ce428     Ce     0.1668   0.3101   0.5832
Ce429     Ce     0.4399   0.5832   0.5832
Ce430     Ce     0.6668   0.6668   0.4399
Ce431     Ce     0.4399   0.6668   0.6668
Ce432     Ce     0.1668   0.1668   0.4399
Ce433     Ce     0.3332   0.5601   0.3332
Ce434     Ce     0.5832   0.4399   0.5832
Ce435     Ce     0.6668   0.4399   0.6668
Ce436     Ce     0.5832   0.5832   0.4399
Ce437     Ce     0.4399   0.0832   0.0832
Ce438     Ce     0.3101   0.1668   0.5832
Ce439     Ce     0.3101   0.0832   0.6668
Ce440     Ce     0.0832   0.4399   0.0832
Ce441     Ce     0.0832   0.6668   0.3101
Ce442     Ce     0.5601   0.3332   0.3332
Ce443     Ce     0.4168   0.1899   0.3332
Ce444     Ce     0.6668   0.3101   0.0832
Ce445     Ce     0.5601   0.4168   0.4168
Ce446     Ce     0.4168   0.5601   0.4168
Ce447     Ce     0.3332   0.1899   0.4168
Ce448     Ce     0.4168   0.4168   0.5601
H449     H     0.6286   0.7668   0.7668
H450     H     0.4832   0.7668   0.6214
H451     H     0.2668   0.1286   0.7668
H452     H     0.9832   0.2668   0.6214
H453     H     0.7332   0.3714   0.7332
H454     H     0.6214   0.9832   0.2668
H455     H     0.9832   0.7668   0.1214
H456     H     0.0168   0.3786   0.7332
H457     H     0.4832   0.6214   0.7668
H458     H     0.7668   0.1214   0.9832
H459     H     0.9832   0.4832   0.1286
H460     H     0.9832   0.1286   0.4832
H461     H     0.1286   0.7668   0.2668
H462     H     0.4832   0.9832   0.1286
H463     H     0.1286   0.9832   0.4832
H464     H     0.4832   0.1286   0.9832
H465     H     0.6286   0.2668   0.2668
H466     H     0.2668   0.6286   0.2668
H467     H     0.9832   0.6214   0.2668
H468     H     0.0168   0.7332   0.3786
H469     H     0.2332   0.7332   0.8714
H470     H     0.6214   0.2668   0.9832
H471     H     0.8714   0.2332   0.7332
H472     H     0.2668   0.6214   0.9832
H473     H     0.7332   0.3786   0.0168
H474     H     0.7668   0.9832   0.1214
H475     H     0.7668   0.2668   0.1286
H476     H     0.9832   0.9832   0.6286
H477     H     0.9832   0.6286   0.9832
H478     H     0.2668   0.7668   0.1286
H479     H     0.6286   0.9832   0.9832
H480     H     0.7668   0.1286   0.2668
H481     H     0.9832   0.1214   0.7668
H482     H     0.8786   0.2332   0.0168
H483     H     0.2668   0.1214   0.4832
H484     H     0.8786   0.0168   0.2332
H485     H     0.7332   0.8714   0.2332
H486     H     0.8714   0.7332   0.2332
H487     H     0.5168   0.7332   0.8786
H488     H     0.1214   0.2668   0.4832
H489     H     0.3786   0.2332   0.5168
H490     H     0.3786   0.7332   0.0168
H491     H     0.3786   0.5168   0.2332
H492     H     0.3714   0.2332   0.2332
H493     H     0.3786   0.0168   0.7332
H494     H     0.1286   0.2668   0.7668
H495     H     0.2668   0.9832   0.6214
H496     H     0.4832   0.1214   0.2668
H497     H     0.4832   0.2668   0.1214
H498     H     0.1214   0.4832   0.2668
H499     H     0.0168   0.2332   0.8786
H500     H     0.5168   0.3786   0.2332
H501     H     0.2332   0.8786   0.0168
H502     H     0.3714   0.5168   0.5168
H503     H     0.2332   0.2332   0.3714
H504     H     0.0168   0.8786   0.2332
H505     H     0.0168   0.0168   0.3714
H506     H     0.3714   0.0168   0.0168
H507     H     0.0168   0.3714   0.0168
H508     H     0.6214   0.4832   0.7668
H509     H     0.1214   0.9832   0.7668
H510     H     0.8714   0.5168   0.0168
H511     H     0.7332   0.2332   0.8714
H512     H     0.7668   0.6214   0.4832
H513     H     0.6214   0.7668   0.4832
H514     H     0.2332   0.8714   0.7332
H515     H     0.6286   0.4832   0.4832
H516     H     0.2332   0.3786   0.5168
H517     H     0.2668   0.2668   0.6286
H518     H     0.5168   0.2332   0.3786
H519     H     0.8714   0.0168   0.5168
H520     H     0.4832   0.6286   0.4832
H521     H     0.4832   0.4832   0.6286
H522     H     0.2668   0.4832   0.1214
H523     H     0.1286   0.4832   0.9832
H524     H     0.7332   0.0168   0.3786
H525     H     0.0168   0.5168   0.8714
H526     H     0.7668   0.4832   0.6214
H527     H     0.0168   0.8714   0.5168
H528     H     0.5168   0.0168   0.8714
H529     H     0.5168   0.8714   0.0168
H530     H     0.2332   0.0168   0.8786
H531     H     0.2332   0.3714   0.2332
H532     H     0.2332   0.5168   0.3786
H533     H     0.7668   0.7668   0.6286
H534     H     0.3714   0.7332   0.7332
H535     H     0.7332   0.8786   0.5168
H536     H     0.8786   0.7332   0.5168
H537     H     0.8786   0.5168   0.7332
H538     H     0.7668   0.6286   0.7668
H539     H     0.1214   0.7668   0.9832
H540     H     0.7332   0.5168   0.8786
H541     H     0.5168   0.8786   0.7332
H542     H     0.5168   0.3714   0.5168
H543     H     0.5168   0.5168   0.3714
H544     H     0.7332   0.7332   0.3714
loop_
_geom_bond_atom_site_label_1
_geom_bond_atom_site_label_2
_geom_bond_distance
_geom_bond_site_symmetry_2
_ccdc_geom_bond_type
S1     H485    10.293   .     S
S1     H486    10.293   .     S
S1     H544    10.293   .     S
S1     V122    10.073   .     S
S1     V124    10.073   .     S
S1     V123    10.073   .     S
S2     H529    10.293   1_556     S
S2     H487    10.293   .     S
S2     H490    10.293   1_556     S
S2     V104    10.073   1_556     S
S2     V105    10.073   1_556     S
S2     V106    10.073   1_556     S
S3     H540    10.293   .     S
S3     H510    10.293   1_556     S
S3     H473    10.293   1_556     S
S3     V352    10.073   1_556     S
S3     V351    10.073   1_556     S
S3     V350    10.073   1_556     S
S4     H508    10.293   .     S
S4     H457    10.293   .     S
S4     H521    10.293   .     S
S4     V66    10.073   .     S
S4     V65    10.073   .     S
S4     V67    10.073   .     S
S5     H513    10.293   .     S
S5     H520    10.293   .     S
S5     H450    10.293   .     S
S5     V69    10.073   .     S
S5     V68    10.073   .     S
S5     V70    10.073   .     S
S6     H512    10.293   .     S
S6     H515    10.293   .     S
S6     H526    10.293   .     S
S6     V71    10.073   .     S
S6     V73    10.073   .     S
S6     V72    10.073   .     S
S7     H527    10.293   1_655     S
S7     H536    10.293   .     S
S7     H468    10.293   1_655     S
S7     V135    10.073   1_655     S
S7     V136    10.073   1_655     S
S7     V134    10.073   1_655     S
S8     H525    10.293   1_655     S
S8     H537    10.293   .     S
S8     H456    10.293   1_655     S
S8     V111    10.073   1_655     S
S8     V112    10.073   1_655     S
S8     V110    10.073   1_655     S
S9     H478    10.293   .     S
S9     H461    10.293   .     S
S9     H466    10.293   .     S
S9     V99    10.073   .     S
S9     V98    10.073   .     S
S9     V100    10.073   .     S
S10     H541    10.293   .     S
S10     H528    10.293   1_565     S
S10     H493    10.293   1_565     S
S10     V126    10.073   1_565     S
S10     V127    10.073   1_565     S
S10     V125    10.073   1_565     S
S11     H519    10.293   1_565     S
S11     H535    10.293   .     S
S11     H524    10.293   1_565     S
S11     V149    10.073   1_565     S
S11     V151    10.073   1_565     S
S11     V150    10.073   1_565     S
S12     H543    10.293   .     S
S12     H500    10.293   .     S
S12     H491    10.293   .     S
S12     V120    10.073   .     S
S12     V119    10.073   .     S
S12     V121    10.073   .     S
S13     H511    10.293   .     S
S13     H471    10.293   .     S
S13     H453    10.293   .     S
S13     V154    10.073   .     S
S13     V152    10.073   .     S
S13     V153    10.073   .     S
S14     H495    10.293   1_545     S
S14     H483    10.293   .     S
S14     H463    10.293   1_545     S
S14     V84    10.073   1_545     S
S14     V83    10.073   1_545     S
S14     V85    10.073   1_545     S
S15     H522    10.293   .     S
S15     H472    10.293   1_554     S
S15     H523    10.293   1_554     S
S15     V77    10.073   1_554     S
S15     V78    10.073   1_554     S
S15     V79    10.073   1_554     S
S16     H542    10.293   .     S
S16     H489    10.293   .     S
S16     H518    10.293   .     S
S16     V103    10.073   .     S
S16     V101    10.073   .     S
S16     V102    10.073   .     S
S17     H496    10.293   .     S
S17     H454    10.293   1_545     S
S17     H462    10.293   1_545     S
S17     V92    10.073   1_545     S
S17     V93    10.073   1_545     S
S17     V94    10.073   1_545     S
S18     H514    10.293   .     S
S18     H469    10.293   .     S
S18     H534    10.293   .     S
S18     V142    10.073   .     S
S18     V140    10.073   .     S
S18     V141    10.073   .     S
S19     H502    10.293   .     S
S19     H532    10.293   .     S
S19     H516    10.293   .     S
S19     V138    10.073   .     S
S19     V139    10.073   .     S
S19     V137    10.073   .     S
S20     H517    10.293   .     S
S20     H494    10.293   .     S
S20     H451    10.293   .     S
S20     V81    10.073   .     S
S20     V80    10.073   .     S
S20     V82    10.073   .     S
S21     H499    10.293   1_655     S
S21     H482    10.293   1_556     S
S21     H507    10.293   1_656     S
S21     V128    10.073   1_656     S
S21     V130    10.073   1_656     S
S21     V129    10.073   1_656     S
S22     H531    10.293   .     S
S22     H492    10.293   .     S
S22     H503    10.293   .     S
S22     V108    10.073   .     S
S22     V109    10.073   .     S
S22     V107    10.073   .     S
S23     H501    10.293   1_556     S
S23     H506    10.293   1_566     S
S23     H530    10.293   1_565     S
S23     V113    10.073   1_566     S
S23     V114    10.073   1_566     S
S23     V115    10.073   1_566     S
S24     H480    10.293   .     S
S24     H475    10.293   .     S
S24     H465    10.293   .     S
S24     V96    10.073   .     S
S24     V95    10.073   .     S
S24     V97    10.073   .     S
S25     H504    10.293   1_655     S
S25     H484    10.293   1_565     S
S25     H505    10.293   1_665     S
S25     V156    10.073   1_665     S
S25     V157    10.073   1_665     S
S25     V155    10.073   1_665     S
S26     H452    10.293   1_455     S
S26     H460    10.293   1_455     S
S26     H488    10.293   .     S
S26     V118    10.073   1_455     S
S26     V117    10.073   1_455     S
S26     V116    10.073   1_455     S
S27     H467    10.293   1_455     S
S27     H459    10.293   1_455     S
S27     H498    10.293   .     S
S27     V91    10.073   1_455     S
S27     V90    10.073   1_455     S
S27     V89    10.073   1_455     S
S28     H539    10.293   1_554     S
S28     H477    10.293   1_454     S
S28     H455    10.293   1_455     S
S28     V143    10.073   1_454     S
S28     V144    10.073   1_454     S
S28     V145    10.073   1_454     S
S29     H470    10.293   1_554     S
S29     H464    10.293   1_554     S
S29     H497    10.293   .     S
S29     V88    10.073   1_554     S
S29     V86    10.073   1_554     S
S29     V87    10.073   1_554     S
S30     H476    10.293   1_445     S
S30     H481    10.293   1_455     S
S30     H509    10.293   1_545     S
S30     V146    10.073   1_445     S
S30     V148    10.073   1_445     S
S30     V147    10.073   1_445     S
S31     H538    10.293   .     S
S31     H533    10.293   .     S
S31     H449    10.293   .     S
S31     V74    10.073   .     S
S31     V76    10.073   .     S
S31     V75    10.073   .     S
S32     H479    10.293   1_544     S
S32     H458    10.293   1_554     S
S32     H474    10.293   1_545     S
S32     V131    10.073   1_544     S
S32     V133    10.073   1_544     S
S32     V132    10.073   1_544     S
Ti33     V155    10.029   .     S
Ti33     V113    10.029   .     S
Ti33     V128    10.029   .     S
Ti33     Ti34    9.986   .     S
Ti33     Ti36    9.986   .     S
Ti33     Ti35    9.986   .     S
Ti34     V129    10.029   .     S
Ti34     V156    10.029   .     S
Ti34     V108    10.029   .     S
Ti34     Ti36    9.986   .     S
Ti34     Ti35    9.986   .     S
Ti35     V130    10.029   .     S
Ti35     V114    10.029   .     S
Ti35     V107    10.029   .     S
Ti35     Ti36    9.986   .     S
Ti36     V157    10.029   .     S
Ti36     V115    10.029   .     S
Ti36     V109    10.029   .     S
Ti37     V132    10.029   .     S
Ti37     V74    10.029   .     S
Ti37     V147    10.029   .     S
Ti37     Ti38    9.986   .     S
Ti37     Ti39    9.986   .     S
Ti37     Ti40    9.986   .     S
Ti38     V146    10.029   .     S
Ti38     V143    10.029   .     S
Ti38     V131    10.029   .     S
Ti38     Ti40    9.986   .     S
Ti38     Ti39    9.986   .     S
Ti39     V133    10.029   .     S
Ti39     V75    10.029   .     S
Ti39     V145    10.029   .     S
Ti39     Ti40    9.986   .     S
Ti40     V144    10.029   .     S
Ti40     V76    10.029   .     S
Ti40     V148    10.029   .     S
Ti41     V124    10.029   .     S
Ti41     V106    10.029   .     S
Ti41     V351    10.029   .     S
Ti41     Ti42    9.986   .     S
Ti41     Ti44    9.986   .     S
Ti41     Ti43    9.986   .     S
Ti42     V352    10.029   .     S
Ti42     V121    10.029   .     S
Ti42     V123    10.029   .     S
Ti42     Ti43    9.986   .     S
Ti42     Ti44    9.986   .     S
Ti43     V350    10.029   .     S
Ti43     V105    10.029   .     S
Ti43     V119    10.029   .     S
Ti43     Ti44    9.986   .     S
Ti44     V120    10.029   .     S
Ti44     V122    10.029   .     S
Ti44     V104    10.029   .     S
Ti45     V135    10.029   .     S
Ti45     V111    10.029   .     S
Ti45     V140    10.029   .     S
Ti45     Ti47    9.986   .     S
Ti45     Ti48    9.986   .     S
Ti45     Ti46    9.986   .     S
Ti46     V110    10.029   .     S
Ti46     V134    10.029   .     S
Ti46     V137    10.029   .     S
Ti46     Ti48    9.986   .     S
Ti46     Ti47    9.986   .     S
Ti47     V112    10.029   .     S
Ti47     V141    10.029   .     S
Ti47     V139    10.029   .     S
Ti47     Ti48    9.986   .     S
Ti48     V136    10.029   .     S
Ti48     V142    10.029   .     S
Ti48     V138    10.029   .     S
Ti49     V127    10.029   .     S
Ti49     V154    10.029   .     S
Ti49     V102    10.029   .     S
Ti49     Ti50    9.986   .     S
Ti49     Ti51    9.986   .     S
Ti49     Ti52    9.986   .     S
Ti50     V149    10.029   .     S
Ti50     V126    10.029   .     S
Ti50     V152    10.029   .     S
Ti50     Ti52    9.986   .     S
Ti50     Ti51    9.986   .     S
Ti51     V125    10.029   .     S
Ti51     V150    10.029   .     S
Ti51     V101    10.029   .     S
Ti51     Ti52    9.986   .     S
Ti52     V153    10.029   .     S
Ti52     V103    10.029   .     S
Ti52     V151    10.029   .     S
Ti53     V86    10.029   .     S
Ti53     V81    10.029   .     S
Ti53     V66    10.029   .     S
Ti53     Ti56    9.986   .     S
Ti53     Ti55    9.986   .     S
Ti53     Ti54    9.986   .     S
Ti54     V88    10.029   .     S
Ti54     V79    10.029   .     S
Ti54     V80    10.029   .     S
Ti54     Ti55    9.986   .     S
Ti54     Ti56    9.986   .     S
Ti55     V82    10.029   .     S
Ti55     V77    10.029   .     S
Ti55     V67    10.029   .     S
Ti55     Ti56    9.986   .     S
Ti56     V65    10.029   .     S
Ti56     V78    10.029   .     S
Ti56     V87    10.029   .     S
Ti57     V99    10.029   .     S
Ti57     V92    10.029   .     S
Ti57     V70    10.029   .     S
Ti57     Ti60    9.986   .     S
Ti57     Ti58    9.986   .     S
Ti57     Ti59    9.986   .     S
Ti58     V98    10.029   .     S
Ti58     V94    10.029   .     S
Ti58     V85    10.029   .     S
Ti58     Ti59    9.986   .     S
Ti58     Ti60    9.986   .     S
Ti59     V100    10.029   .     S
Ti59     V83    10.029   .     S
Ti59     V69    10.029   .     S
Ti59     Ti60    9.986   .     S
Ti60     V68    10.029   .     S
Ti60     V93    10.029   .     S
Ti60     V84    10.029   .     S
Ti61     V73    10.029   .     S
Ti61     V97    10.029   .     S
Ti61     V89    10.029   .     S
Ti61     Ti64    9.986   .     S
Ti61     Ti63    9.986   .     S
Ti61     Ti62    9.986   .     S
Ti62     V95    10.029   .     S
Ti62     V118    10.029   .     S
Ti62     V91    10.029   .     S
Ti62     Ti63    9.986   .     S
Ti62     Ti64    9.986   .     S
Ti63     V116    10.029   .     S
Ti63     V96    10.029   .     S
Ti63     V72    10.029   .     S
Ti63     Ti64    9.986   .     S
Ti64     V71    10.029   .     S
Ti64     V90    10.029   .     S
Ti64     V117    10.029   .     S
V65     V67    9.882   .     S
V65     V66    9.882   .     S
V65     Er324    9.901   .     S
V65     Er333    9.901   .     S
V66     V67    9.882   .     S
V66     Er292    9.901   .     S
V66     Er325    9.901   .     S
V67     Er293    9.901   .     S
V67     Er332    9.901   .     S
V68     V69    9.882   .     S
V68     V70    9.882   .     S
V68     Er336    9.901   .     S
V68     Er281    9.901   .     S
V69     V70    9.882   .     S
V69     Er295    9.901   .     S
V69     Er337    9.901   .     S
V70     Er294    9.901   .     S
V70     Er280    9.901   .     S
V71     V72    9.882   .     S
V71     V73    9.882   .     S
V71     Er284    9.901   .     S
V71     Er319    9.901   .     S
V72     V73    9.882   .     S
V72     Er300    9.901   .     S
V72     Er318    9.901   .     S
V73     Er301    9.901   .     S
V73     Er285    9.901   .     S
V74     V75    9.882   .     S
V74     V76    9.882   .     S
V74     Er288    9.901   .     S
V74     Er331    9.901   .     S
V75     V76    9.882   .     S
V75     Er330    9.901   .     S
V75     Er317    9.901   .     S
V76     Er289    9.901   .     S
V76     Er316    9.901   .     S
V77     V78    9.882   .     S
V77     V79    9.882   .     S
V77     Er309    9.901   .     S
V77     Er185    9.901   .     S
V77     S15    10.073   1_556     S
V78     V79    9.882   .     S
V78     Er184    9.901   .     S
V78     Er158    9.901   1_556     S
V78     S15    10.073   1_556     S
V79     Er308    9.901   .     S
V79     Er159    9.901   1_556     S
V79     S15    10.073   1_556     S
V80     V81    9.882   .     S
V80     V82    9.882   .     S
V80     Er224    9.901   .     S
V80     Er197    9.901   .     S
V81     V82    9.882   .     S
V81     Er180    9.901   .     S
V81     Er196    9.901   .     S
V82     Er181    9.901   .     S
V82     Er225    9.901   .     S
V83     V84    9.882   .     S
V83     V85    9.882   .     S
V83     Er203    9.901   .     S
V83     Er277    9.901   .     S
V83     S14    10.073   1_565     S
V84     V85    9.882   .     S
V84     Er202    9.901   .     S
V84     Er174    9.901   1_565     S
V84     S14    10.073   1_565     S
V85     Er276    9.901   .     S
V85     Er175    9.901   1_565     S
V85     S14    10.073   1_565     S
V86     V87    9.882   .     S
V86     V88    9.882   .     S
V86     Er345    9.901   .     S
V86     Er235    9.901   .     S
V86     S29    10.073   1_556     S
V87     V88    9.882   .     S
V87     Er234    9.901   .     S
V87     Er208    9.901   1_556     S
V87     S29    10.073   1_556     S
V88     Er344    9.901   .     S
V88     Er209    9.901   1_556     S
V88     S29    10.073   1_556     S
V89     V90    9.882   .     S
V89     V91    9.882   .     S
V89     Er313    9.901   .     S
V89     Er251    9.901   .     S
V89     S27    10.073   1_655     S
V90     V91    9.882   .     S
V90     Er250    9.901   .     S
V90     Er164    9.901   1_655     S
V90     S27    10.073   1_655     S
V91     Er312    9.901   .     S
V91     Er165    9.901   1_655     S
V91     S27    10.073   1_655     S
V92     V93    9.882   .     S
V92     V94    9.882   .     S
V92     Er349    9.901   .     S
V92     Er265    9.901   .     S
V92     S17    10.073   1_565     S
V93     V94    9.882   .     S
V93     Er264    9.901   .     S
V93     Er210    9.901   1_565     S
V93     S17    10.073   1_565     S
V94     Er348    9.901   .     S
V94     Er211    9.901   1_565     S
V94     S17    10.073   1_565     S
V95     V96    9.882   .     S
V95     V97    9.882   .     S
V95     Er255    9.901   .     S
V95     Er237    9.901   .     S
V96     V97    9.882   .     S
V96     Er213    9.901   .     S
V96     Er254    9.901   .     S
V97     Er212    9.901   .     S
V97     Er236    9.901   .     S
V98     V99    9.882   .     S
V98     V100    9.882   .     S
V98     Er193    9.901   .     S
V98     Er243    9.901   .     S
V99     V100    9.882   .     S
V99     Er169    9.901   .     S
V99     Er192    9.901   .     S
V100     Er168    9.901   .     S
V100     Er242    9.901   .     S
V101     V103    9.882   .     S
V101     V102    9.882   .     S
V101     Er178    9.901   .     S
V101     Er214    9.901   .     S
V102     V103    9.882   .     S
V102     Er179    9.901   .     S
V102     Er298    9.901   .     S
V103     Er299    9.901   .     S
V103     Er215    9.901   .     S
V104     V106    9.882   .     S
V104     V105    9.882   .     S
V104     Er182    9.901   .     S
V104     Er342    9.901   .     S
V104     S2    10.073   1_554     S
V105     V106    9.882   .     S
V105     Er183    9.901   .     S
V105     Er335    9.901   1_554     S
V105     S2    10.073   1_554     S
V106     Er343    9.901   .     S
V106     Er334    9.901   1_554     S
V106     S2    10.073   1_554     S
V107     V108    9.882   .     S
V107     V109    9.882   .     S
V107     Er161    9.901   .     S
V107     Er207    9.901   .     S
V108     V109    9.882   .     S
V108     Er173    9.901   .     S
V108     Er160    9.901   .     S
V109     Er206    9.901   .     S
V109     Er172    9.901   .     S
V110     V111    9.882   .     S
V110     V112    9.882   .     S
V110     Er219    9.901   .     S
V110     Er321    9.901   1_455     S
V110     S8    10.073   1_455     S
V111     V112    9.882   .     S
V111     Er307    9.901   .     S
V111     Er320    9.901   1_455     S
V111     S8    10.073   1_455     S
V112     Er218    9.901   .     S
V112     Er306    9.901   .     S
V112     S8    10.073   1_455     S
V113     V115    9.882   .     S
V113     V114    9.882   .     S
V113     Er190    9.901   1_545     S
V113     Er195    9.901   1_554     S
V113     S23    10.073   1_544     S
V114     V115    9.882   .     S
V114     Er346    9.901   .     S
V114     Er194    9.901   1_554     S
V114     S23    10.073   1_544     S
V115     Er347    9.901   .     S
V115     Er191    9.901   1_545     S
V115     S23    10.073   1_544     S
V116     V117    9.882   .     S
V116     V118    9.882   .     S
V116     Er273    9.901   .     S
V116     Er223    9.901   .     S
V116     S26    10.073   1_655     S
V117     V118    9.882   .     S
V117     Er222    9.901   .     S
V117     Er170    9.901   1_655     S
V117     S26    10.073   1_655     S
V118     Er272    9.901   .     S
V118     Er171    9.901   1_655     S
V118     S26    10.073   1_655     S
V119     V121    9.882   .     S
V119     V120    9.882   .     S
V119     Er166    9.901   .     S
V119     Er216    9.901   .     S
V120     V121    9.882   .     S
V120     Er167    9.901   .     S
V120     Er297    9.901   .     S
V121     Er217    9.901   .     S
V121     Er296    9.901   .     S
V122     V123    9.882   .     S
V122     V124    9.882   .     S
V122     Er282    9.901   .     S
V122     Er263    9.901   .     S
V123     V124    9.882   .     S
V123     Er283    9.901   .     S
V123     Er249    9.901   .     S
V124     Er248    9.901   .     S
V124     Er262    9.901   .     S
V125     V127    9.882   .     S
V125     V126    9.882   .     S
V125     Er201    9.901   .     S
V125     Er328    9.901   1_545     S
V125     S10    10.073   1_545     S
V126     V127    9.882   .     S
V126     Er329    9.901   1_545     S
V126     Er339    9.901   .     S
V126     S10    10.073   1_545     S
V127     Er200    9.901   .     S
V127     Er338    9.901   .     S
V127     S10    10.073   1_545     S
V128     V129    9.882   .     S
V128     V130    9.882   .     S
V128     Er241    9.901   1_455     S
V128     Er226    9.901   1_554     S
V128     S21    10.073   1_454     S
V129     V130    9.882   .     S
V129     Er310    9.901   .     S
V129     Er240    9.901   1_455     S
V129     S21    10.073   1_454     S
V130     Er311    9.901   .     S
V130     Er227    9.901   1_554     S
V130     S21    10.073   1_454     S
V131     V132    9.882   .     S
V131     V133    9.882   .     S
V131     Er238    9.901   1_565     S
V131     Er258    9.901   1_556     S
V131     S32    10.073   1_566     S
V132     V133    9.882   .     S
V132     Er341    9.901   .     S
V132     Er239    9.901   1_565     S
V132     S32    10.073   1_566     S
V133     Er340    9.901   .     S
V133     Er259    9.901   1_556     S
V133     S32    10.073   1_566     S
V134     V136    9.882   .     S
V134     V135    9.882   .     S
V134     Er253    9.901   .     S
V134     Er286    9.901   1_455     S
V134     S7    10.073   1_455     S
V135     V136    9.882   .     S
V135     Er287    9.901   1_455     S
V135     Er267    9.901   .     S
V135     S7    10.073   1_455     S
V136     Er252    9.901   .     S
V136     Er266    9.901   .     S
V136     S7    10.073   1_455     S
V137     V138    9.882   .     S
V137     V139    9.882   .     S
V137     Er176    9.901   .     S
V137     Er162    9.901   .     S
V138     V139    9.882   .     S
V138     Er163    9.901   .     S
V138     Er290    9.901   .     S
V139     Er177    9.901   .     S
V139     Er291    9.901   .     S
V140     V141    9.882   .     S
V140     V142    9.882   .     S
V140     Er204    9.901   .     S
V140     Er186    9.901   .     S
V141     V142    9.882   .     S
V141     Er326    9.901   .     S
V141     Er187    9.901   .     S
V142     Er327    9.901   .     S
V142     Er205    9.901   .     S
V143     V144    9.882   .     S
V143     V145    9.882   .     S
V143     Er246    9.901   1_556     S
V143     Er189    9.901   1_655     S
V143     S28    10.073   1_656     S
V144     V145    9.882   .     S
V144     Er305    9.901   .     S
V144     Er188    9.901   1_655     S
V144     S28    10.073   1_656     S
V145     Er304    9.901   .     S
V145     Er247    9.901   1_556     S
V145     S28    10.073   1_656     S
V146     V147    9.882   .     S
V146     V148    9.882   .     S
V146     Er198    9.901   1_655     S
V146     Er229    9.901   1_565     S
V146     S30    10.073   1_665     S
V147     V148    9.882   .     S
V147     Er269    9.901   .     S
V147     Er228    9.901   1_565     S
V147     S30    10.073   1_665     S
V148     Er268    9.901   .     S
V148     Er199    9.901   1_655     S
V148     S30    10.073   1_665     S
V149     V151    9.882   .     S
V149     V150    9.882   .     S
V149     Er271    9.901   .     S
V149     Er278    9.901   1_545     S
V149     S11    10.073   1_545     S
V150     V151    9.882   .     S
V150     Er261    9.901   .     S
V150     Er279    9.901   1_545     S
V150     S11    10.073   1_545     S
V151     Er260    9.901   .     S
V151     Er270    9.901   .     S
V151     S11    10.073   1_545     S
V152     V153    9.882   .     S
V152     V154    9.882   .     S
V152     Er232    9.901   .     S
V152     Er220    9.901   .     S
V153     V154    9.882   .     S
V153     Er322    9.901   .     S
V153     Er221    9.901   .     S
V154     Er323    9.901   .     S
V154     Er233    9.901   .     S
V155     V156    9.882   .     S
V155     V157    9.882   .     S
V155     Er245    9.901   1_545     S
V155     Er256    9.901   1_455     S
V155     S25    10.073   1_445     S
V156     V157    9.882   .     S
V156     Er275    9.901   .     S
V156     Er257    9.901   1_455     S
V156     S25    10.073   1_445     S
V157     Er274    9.901   .     S
V157     Er244    9.901   1_545     S
V157     S25    10.073   1_445     S
Er158     V78    9.901   1_554     S
Er158     Er208    9.877   .     S
Er158     Er166    9.466   .     S
Er158     Ce414    10.04   .     S
Er158     Er159    9.422   .     S
Er158     H522    10.073   .     S
Er159     V79    9.901   1_554     S
Er159     Er209    9.877   .     S
Er159     Er161    9.466   .     S
Er159     Ce414    10.04   .     S
Er159     H522    10.073   .     S
Er160     Er310    9.877   .     S
Er160     Er165    9.466   .     S
Er160     Ce419    10.04   .     S
Er160     Er161    9.422   .     S
Er160     H531    10.073   .     S
Er161     Er311    9.877   .     S
Er161     Ce419    10.04   .     S
Er161     H531    10.073   .     S
Er162     Er253    9.877   .     S
Er162     Er164    9.466   .     S
Er162     Ce422    10.04   .     S
Er162     Er163    9.422   .     S
Er162     H532    10.073   .     S
Er163     Er252    9.877   .     S
Er163     Er168    9.466   .     S
Er163     Ce422    10.04   .     S
Er163     H532    10.073   .     S
Er164     V90    9.901   1_455     S
Er164     Er170    9.877   .     S
Er164     Ce425    10.04   .     S
Er164     Er165    9.422   .     S
Er164     H498    10.073   .     S
Er165     V91    9.901   1_455     S
Er165     Er171    9.877   .     S
Er165     Ce425    10.04   .     S
Er165     H498    10.073   .     S
Er166     Er183    9.877   .     S
Er166     Ce421    10.04   .     S
Er166     Er167    9.422   .     S
Er166     H491    10.073   .     S
Er167     Er182    9.877   .     S
Er167     Er169    9.466   .     S
Er167     Ce421    10.04   .     S
Er167     H491    10.073   .     S
Er168     Er295    9.877   .     S
Er168     Ce433    10.04   .     S
Er168     Er169    9.422   .     S
Er168     H466    10.073   .     S
Er169     Er294    9.877   .     S
Er169     Ce433    10.04   .     S
Er169     H466    10.073   .     S
Er170     V117    9.901   1_455     S
Er170     Er176    9.466   .     S
Er170     Ce409    10.04   .     S
Er170     Er171    9.422   .     S
Er170     H488    10.073   .     S
Er171     V118    9.901   1_455     S
Er171     Er173    9.466   .     S
Er171     Ce409    10.04   .     S
Er171     H488    10.073   .     S
Er172     Er274    9.877   .     S
Er172     Er175    9.466   .     S
Er172     Ce432    10.04   .     S
Er172     Er173    9.422   .     S
Er172     H503    10.073   .     S
Er173     Er275    9.877   .     S
Er173     Ce432    10.04   .     S
Er173     H503    10.073   .     S
Er174     V84    9.901   1_545     S
Er174     Er210    9.877   .     S
Er174     Er178    9.466   .     S
Er174     Ce447    10.04   .     S
Er174     Er175    9.422   .     S
Er174     H483    10.073   .     S
Er175     V85    9.901   1_545     S
Er175     Er211    9.877   .     S
Er175     Ce447    10.04   .     S
Er175     H483    10.073   .     S
Er176     Er219    9.877   .     S
Er176     Ce428    10.04   .     S
Er176     Er177    9.422   .     S
Er176     H516    10.073   .     S
Er177     Er218    9.877   .     S
Er177     Er181    9.466   .     S
Er177     Ce428    10.04   .     S
Er177     H516    10.073   .     S
Er178     Er201    9.877   .     S
Er178     Ce438    10.04   .     S
Er178     Er179    9.422   .     S
Er178     H489    10.073   .     S
Er179     Er200    9.877   .     S
Er179     Er180    9.466   .     S
Er179     Ce438    10.04   .     S
Er179     H489    10.073   .     S
Er180     Er292    9.877   .     S
Er180     Ce413    10.04   .     S
Er180     Er181    9.422   .     S
Er180     H517    10.073   .     S
Er181     Er293    9.877   .     S
Er181     Ce413    10.04   .     S
Er181     H517    10.073   .     S
Er182     Er192    9.466   .     S
Er182     Ce420    10.04   .     S
Er182     Er183    9.422   .     S
Er182     H490    10.073   .     S
Er183     Er184    9.466   1_554     S
Er183     Ce420    10.04   .     S
Er183     H490    10.073   .     S
Er184     Er333    9.877   .     S
Er184     Er183    9.466   1_556     S
Er184     Ce415    10.04   .     S
Er184     Er185    9.422   .     S
Er184     H472    10.073   .     S
Er185     Er332    9.877   .     S
Er185     Er187    9.466   .     S
Er185     Ce415    10.04   .     S
Er185     H472    10.073   .     S
Er186     Er307    9.877   .     S
Er186     Er188    9.466   .     S
Er186     Ce386    10.04   .     S
Er186     Er187    9.422   .     S
Er186     H469    10.073   .     S
Er187     Er306    9.877   .     S
Er187     Ce386    10.04   .     S
Er187     H469    10.073   .     S
Er188     V144    9.901   1_455     S
Er188     Er199    9.877   .     S
Er188     Ce359    10.04   .     S
Er188     Er189    9.422   .     S
Er188     H539    10.073   .     S
Er189     V143    9.901   1_455     S
Er189     Er198    9.877   .     S
Er189     Er190    9.466   1_556     S
Er189     Ce359    10.04   .     S
Er189     H539    10.073   .     S
Er190     V113    9.901   1_565     S
Er190     Er245    9.877   .     S
Er190     Er189    9.466   1_554     S
Er190     Ce368    10.04   .     S
Er190     Er191    9.422   .     S
Er190     H501    10.073   .     S
Er191     V115    9.901   1_565     S
Er191     Er244    9.877   .     S
Er191     Er193    9.466   .     S
Er191     Ce368    10.04   .     S
Er191     H501    10.073   .     S
Er192     Er349    9.877   .     S
Er192     Ce385    10.04   .     S
Er192     Er193    9.422   .     S
Er192     H478    10.073   .     S
Er193     Er348    9.877   .     S
Er193     Ce385    10.04   .     S
Er193     H478    10.073   .     S
Er194     V114    9.901   1_556     S
Er194     Er227    9.877   .     S
Er194     Er197    9.466   .     S
Er194     Ce370    10.04   .     S
Er194     Er195    9.422   .     S
Er194     H530    10.073   .     S
Er195     V113    9.901   1_556     S
Er195     Er226    9.877   .     S
Er195     Er198    9.466   1_545     S
Er195     Ce370    10.04   .     S
Er195     H530    10.073   .     S
Er196     Er345    9.877   .     S
Er196     Er200    9.466   .     S
Er196     Ce381    10.04   .     S
Er196     Er197    9.422   .     S
Er196     H451    10.073   .     S
Er197     Er344    9.877   .     S
Er197     Ce381    10.04   .     S
Er197     H451    10.073   .     S
Er198     V146    9.901   1_455     S
Er198     Er195    9.466   1_565     S
Er198     Ce360    10.04   .     S
Er198     Er199    9.422   .     S
Er198     H509    10.073   .     S
Er199     V148    9.901   1_455     S
Er199     Er204    9.466   .     S
Er199     Ce360    10.04   .     S
Er199     H509    10.073   .     S
Er200     Ce439    10.04   .     S
Er200     Er201    9.422   .     S
Er200     H493    10.073   .     S
Er201     Er202    9.466   1_545     S
Er201     Ce439    10.04   .     S
Er201     H493    10.073   .     S
Er202     Er336    9.877   .     S
Er202     Er201    9.466   1_565     S
Er202     Ce410    10.04   .     S
Er202     Er203    9.422   .     S
Er202     H495    10.073   .     S
Er203     Er337    9.877   .     S
Er203     Er205    9.466   .     S
Er203     Ce410    10.04   .     S
Er203     H495    10.073   .     S
Er204     Er267    9.877   .     S
Er204     Ce361    10.04   .     S
Er204     Er205    9.422   .     S
Er204     H514    10.073   .     S
Er205     Er266    9.877   .     S
Er205     Ce361    10.04   .     S
Er205     H514    10.073   .     S
Er206     Er347    9.877   .     S
Er206     Er211    9.466   .     S
Er206     Ce427    10.04   .     S
Er206     Er207    9.422   .     S
Er206     H492    10.073   .     S
Er207     Er346    9.877   .     S
Er207     Er209    9.466   .     S
Er207     Ce427    10.04   .     S
Er207     H492    10.073   .     S
Er208     V87    9.901   1_554     S
Er208     Er216    9.466   .     S
Er208     Ce423    10.04   .     S
Er208     Er209    9.422   .     S
Er208     H497    10.073   .     S
Er209     V88    9.901   1_554     S
Er209     Ce423    10.04   .     S
Er209     H497    10.073   .     S
Er210     V93    9.901   1_545     S
Er210     Er214    9.466   .     S
Er210     Ce443    10.04   .     S
Er210     Er211    9.422   .     S
Er210     H496    10.073   .     S
Er211     V94    9.901   1_545     S
Er211     Ce443    10.04   .     S
Er211     H496    10.073   .     S
Er212     Er301    9.877   .     S
Er212     Er217    9.466   .     S
Er212     Ce442    10.04   .     S
Er212     Er213    9.422   .     S
Er212     H465    10.073   .     S
Er213     Er300    9.877   .     S
Er213     Er215    9.466   .     S
Er213     Ce442    10.04   .     S
Er213     H465    10.073   .     S
Er214     Er261    9.877   .     S
Er214     Ce424    10.04   .     S
Er214     Er215    9.422   .     S
Er214     H518    10.073   .     S
Er215     Er260    9.877   .     S
Er215     Ce424    10.04   .     S
Er215     H518    10.073   .     S
Er216     Er231    9.877   .     S
Er216     Ce418    10.04   .     S
Er216     Er217    9.422   .     S
Er216     H500    10.073   .     S
Er217     Er230    9.877   .     S
Er217     Ce418    10.04   .     S
Er217     H500    10.073   .     S
Er218     Er225    9.466   .     S
Er218     Ce416    10.04   .     S
Er218     Er219    9.422   .     S
Er218     H456    10.073   .     S
Er219     Er222    9.466   1_455     S
Er219     Ce416    10.04   .     S
Er219     H456    10.073   .     S
Er220     Er271    9.877   .     S
Er220     Er228    9.466   .     S
Er220     Ce388    10.04   .     S
Er220     Er221    9.422   .     S
Er220     H471    10.073   .     S
Er221     Er270    9.877   .     S
Er221     Er223    9.466   .     S
Er221     Ce388    10.04   .     S
Er221     H471    10.073   .     S
Er222     Er319    9.877   .     S
Er222     Er219    9.466   1_655     S
Er222     Ce391    10.04   .     S
Er222     Er223    9.422   .     S
Er222     H452    10.073   .     S
Er223     Er318    9.877   .     S
Er223     Ce391    10.04   .     S
Er223     H452    10.073   .     S
Er224     Er308    9.877   .     S
Er224     Er227    9.466   .     S
Er224     Ce369    10.04   .     S
Er224     Er225    9.422   .     S
Er224     H494    10.073   .     S
Er225     Er309    9.877   .     S
Er225     Ce369    10.04   .     S
Er225     H494    10.073   .     S
Er226     V128    9.901   1_556     S
Er226     Er229    9.466   1_455     S
Er226     Ce367    10.04   .     S
Er226     Er227    9.422   .     S
Er226     H499    10.073   .     S
Er227     V130    9.901   1_556     S
Er227     Ce367    10.04   .     S
Er227     H499    10.073   .     S
Er228     V147    9.901   1_545     S
Er228     Er239    9.877   .     S
Er228     Ce356    10.04   .     S
Er228     Er229    9.422   .     S
Er228     H481    10.073   .     S
Er229     V146    9.901   1_545     S
Er229     Er238    9.877   .     S
Er229     Er226    9.466   1_655     S
Er229     Ce356    10.04   .     S
Er229     H481    10.073   .     S
Er230     V352    9.901   .     S
Er230     Er236    9.466   .     S
Er230     Ce444    10.04   .     S
Er230     Er231    9.422   .     S
Er230     H473    10.073   .     S
Er231     V350    9.901   .     S
Er231     Er234    9.466   1_554     S
Er231     Ce444    10.04   .     S
Er231     H473    10.073   .     S
Er232     Er339    9.877   .     S
Er232     Er239    9.466   .     S
Er232     Ce353    10.04   .     S
Er232     Er233    9.422   .     S
Er232     H511    10.073   .     S
Er233     Er338    9.877   .     S
Er233     Er235    9.466   .     S
Er233     Ce353    10.04   .     S
Er233     H511    10.073   .     S
Er234     Er324    9.877   .     S
Er234     Er231    9.466   1_556     S
Er234     Ce412    10.04   .     S
Er234     Er235    9.422   .     S
Er234     H470    10.073   .     S
Er235     Er325    9.877   .     S
Er235     Ce412    10.04   .     S
Er235     H470    10.073   .     S
Er236     Er313    9.877   .     S
Er236     Ce392    10.04   .     S
Er236     Er237    9.422   .     S
Er236     H475    10.073   .     S
Er237     Er312    9.877   .     S
Er237     Er240    9.466   .     S
Er237     Ce392    10.04   .     S
Er237     H475    10.073   .     S
Er238     V131    9.901   1_545     S
Er238     Er241    9.466   1_556     S
Er238     Ce403    10.04   .     S
Er238     Er239    9.422   .     S
Er238     H458    10.073   .     S
Er239     V132    9.901   1_545     S
Er239     Ce403    10.04   .     S
Er239     H458    10.073   .     S
Er240     V129    9.901   1_655     S
Er240     Er257    9.877   .     S
Er240     Ce358    10.04   .     S
Er240     Er241    9.422   .     S
Er240     H482    10.073   .     S
Er241     V128    9.901   1_655     S
Er241     Er256    9.877   .     S
Er241     Er238    9.466   1_554     S
Er241     Ce358    10.04   .     S
Er241     H482    10.073   .     S
Er242     Er277    9.877   .     S
Er242     Er252    9.466   .     S
Er242     Ce407    10.04   .     S
Er242     Er243    9.422   .     S
Er242     H461    10.073   .     S
Er243     Er276    9.877   .     S
Er243     Er244    9.466   .     S
Er243     Ce407    10.04   .     S
Er243     H461    10.073   .     S
Er244     V157    9.901   1_565     S
Er244     Ce363    10.04   .     S
Er244     Er245    9.422   .     S
Er244     H504    10.073   .     S
Er245     V155    9.901   1_565     S
Er245     Er246    9.466   1_455     S
Er245     Ce363    10.04   .     S
Er245     H504    10.073   .     S
Er246     V143    9.901   1_554     S
Er246     Er258    9.877   .     S
Er246     Er245    9.466   1_655     S
Er246     Ce400    10.04   .     S
Er246     Er247    9.422   .     S
Er246     H455    10.073   .     S
Er247     V145    9.901   1_554     S
Er247     Er259    9.877   .     S
Er247     Er248    9.466   .     S
Er247     Ce400    10.04   .     S
Er247     H455    10.073   .     S
Er248     Er303    9.877   .     S
Er248     Ce371    10.04   .     S
Er248     Er249    9.422   .     S
Er248     H486    10.073   .     S
Er249     Er302    9.877   .     S
Er249     Er251    9.466   .     S
Er249     Ce371    10.04   .     S
Er249     H486    10.073   .     S
Er250     Er284    9.877   .     S
Er250     Er253    9.466   1_655     S
Er250     Ce394    10.04   .     S
Er250     Er251    9.422   .     S
Er250     H467    10.073   .     S
Er251     Er285    9.877   .     S
Er251     Ce394    10.04   .     S
Er251     H467    10.073   .     S
Er252     Ce441    10.04   .     S
Er252     Er253    9.422   .     S
Er252     H468    10.073   .     S
Er253     Er250    9.466   1_455     S
Er253     Ce441    10.04   .     S
Er253     H468    10.073   .     S
Er254     Er273    9.877   .     S
Er254     Er260    9.466   .     S
Er254     Ce387    10.04   .     S
Er254     Er255    9.422   .     S
Er254     H480    10.073   .     S
Er255     Er272    9.877   .     S
Er255     Er257    9.466   .     S
Er255     Ce387    10.04   .     S
Er255     H480    10.073   .     S
Er256     V155    9.901   1_655     S
Er256     Er258    9.466   1_545     S
Er256     Ce364    10.04   .     S
Er256     Er257    9.422   .     S
Er256     H484    10.073   .     S
Er257     V156    9.901   1_655     S
Er257     Ce364    10.04   .     S
Er257     H484    10.073   .     S
Er258     V131    9.901   1_554     S
Er258     Er256    9.466   1_565     S
Er258     Ce354    10.04   .     S
Er258     Er259    9.422   .     S
Er258     H474    10.073   .     S
Er259     V133    9.901   1_554     S
Er259     Er262    9.466   .     S
Er259     Ce354    10.04   .     S
Er259     H474    10.073   .     S
Er260     Ce417    10.04   .     S
Er260     Er261    9.422   .     S
Er260     H524    10.073   .     S
Er261     Er264    9.466   1_545     S
Er261     Ce417    10.04   .     S
Er261     H524    10.073   .     S
Er262     Er343    9.877   .     S
Er262     Ce390    10.04   .     S
Er262     Er263    9.422   .     S
Er262     H485    10.073   .     S
Er263     Er342    9.877   .     S
Er263     Er265    9.466   .     S
Er263     Ce390    10.04   .     S
Er263     H485    10.073   .     S
Er264     Er281    9.877   .     S
Er264     Er261    9.466   1_565     S
Er264     Ce399    10.04   .     S
Er264     Er265    9.422   .     S
Er264     H454    10.073   .     S
Er265     Er280    9.877   .     S
Er265     Ce399    10.04   .     S
Er265     H454    10.073   .     S
Er266     Er277    9.466   .     S
Er266     Ce362    10.04   .     S
Er266     Er267    9.422   .     S
Er266     H527    10.073   .     S
Er267     Er268    9.466   1_455     S
Er267     Ce362    10.04   .     S
Er267     H527    10.073   .     S
Er268     Er289    9.877   .     S
Er268     Er267    9.466   1_655     S
Er268     Ce393    10.04   .     S
Er268     Er269    9.422   .     S
Er268     H476    10.073   .     S
Er269     Er288    9.877   .     S
Er269     Er271    9.466   1_565     S
Er269     Ce393    10.04   .     S
Er269     H476    10.073   .     S
Er270     Er273    9.466   .     S
Er270     Ce389    10.04   .     S
Er270     Er271    9.422   .     S
Er270     H519    10.073   .     S
Er271     Er269    9.466   1_545     S
Er271     Ce389    10.04   .     S
Er271     H519    10.073   .     S
Er272     Er275    9.466   1_655     S
Er272     Ce374    10.04   .     S
Er272     Er273    9.422   .     S
Er272     H460    10.073   .     S
Er273     Ce374    10.04   .     S
Er273     H460    10.073   .     S
Er274     Er276    9.466   1_545     S
Er274     Ce426    10.04   .     S
Er274     Er275    9.422   .     S
Er274     H505    10.073   .     S
Er275     Er272    9.466   1_455     S
Er275     Ce426    10.04   .     S
Er275     H505    10.073   .     S
Er276     Er274    9.466   1_565     S
Er276     Ce380    10.04   .     S
Er276     Er277    9.422   .     S
Er276     H463    10.073   .     S
Er277     Ce380    10.04   .     S
Er277     H463    10.073   .     S
Er278     V149    9.901   1_565     S
Er278     Er329    9.877   .     S
Er278     Er288    9.466   .     S
Er278     Ce378    10.04   .     S
Er278     Er279    9.422   .     S
Er278     H535    10.073   .     S
Er279     V150    9.901   1_565     S
Er279     Er328    9.877   .     S
Er279     Er281    9.466   .     S
Er279     Ce378    10.04   .     S
Er279     H535    10.073   .     S
Er280     Er282    9.466   .     S
Er280     Ce398    10.04   .     S
Er280     Er281    9.422   .     S
Er280     H513    10.073   .     S
Er281     Ce398    10.04   .     S
Er281     H513    10.073   .     S
Er282     Er297    9.877   .     S
Er282     Ce430    10.04   .     S
Er282     Er283    9.422   .     S
Er282     H544    10.073   .     S
Er283     Er296    9.877   .     S
Er283     Er285    9.466   .     S
Er283     Ce430    10.04   .     S
Er283     H544    10.073   .     S
Er284     Er286    9.466   .     S
Er284     Ce396    10.04   .     S
Er284     Er285    9.422   .     S
Er284     H512    10.073   .     S
Er285     Ce396    10.04   .     S
Er285     H512    10.073   .     S
Er286     V134    9.901   1_655     S
Er286     Er321    9.877   .     S
Er286     Ce382    10.04   .     S
Er286     Er287    9.422   .     S
Er286     H536    10.073   .     S
Er287     V135    9.901   1_655     S
Er287     Er320    9.877   .     S
Er287     Er289    9.466   .     S
Er287     Ce382    10.04   .     S
Er287     H536    10.073   .     S
Er288     Ce405    10.04   .     S
Er288     Er289    9.422   .     S
Er288     H533    10.073   .     S
Er289     Ce405    10.04   .     S
Er289     H533    10.073   .     S
Er290     Er327    9.877   .     S
Er290     Er295    9.466   .     S
Er290     Ce429    10.04   .     S
Er290     Er291    9.422   .     S
Er290     H502    10.073   .     S
Er291     Er326    9.877   .     S
Er291     Er293    9.466   .     S
Er291     Ce429    10.04   .     S
Er291     H502    10.073   .     S
Er292     Er298    9.466   .     S
Er292     Ce448    10.04   .     S
Er292     Er293    9.422   .     S
Er292     H521    10.073   .     S
Er293     Ce448    10.04   .     S
Er293     H521    10.073   .     S
Er294     Er297    9.466   .     S
Er294     Ce446    10.04   .     S
Er294     Er295    9.422   .     S
Er294     H520    10.073   .     S
Er295     Ce446    10.04   .     S
Er295     H520    10.073   .     S
Er296     Er301    9.466   .     S
Er296     Ce436    10.04   .     S
Er296     Er297    9.422   .     S
Er296     H543    10.073   .     S
Er297     Ce436    10.04   .     S
Er297     H543    10.073   .     S
Er298     Er323    9.877   .     S
Er298     Ce434    10.04   .     S
Er298     Er299    9.422   .     S
Er298     H542    10.073   .     S
Er299     Er322    9.877   .     S
Er299     Er300    9.466   .     S
Er299     Ce434    10.04   .     S
Er299     H542    10.073   .     S
Er300     Ce445    10.04   .     S
Er300     Er301    9.422   .     S
Er300     H515    10.073   .     S
Er301     Ce445    10.04   .     S
Er301     H515    10.073   .     S
Er302     V352    9.901   .     S
Er302     Er313    9.466   .     S
Er302     Ce365    10.04   .     S
Er302     Er303    9.422   .     S
Er302     H510    10.073   .     S
Er303     V351    9.901   .     S
Er303     Er304    9.466   1_554     S
Er303     Ce365    10.04   .     S
Er303     H510    10.073   .     S
Er304     Er317    9.877   .     S
Er304     Er303    9.466   1_556     S
Er304     Ce397    10.04   .     S
Er304     Er305    9.422   .     S
Er304     H477    10.073   .     S
Er305     Er316    9.877   .     S
Er305     Er307    9.466   1_655     S
Er305     Ce397    10.04   .     S
Er305     H477    10.073   .     S
Er306     Er309    9.466   .     S
Er306     Ce355    10.04   .     S
Er306     Er307    9.422   .     S
Er306     H525    10.073   .     S
Er307     Er305    9.466   1_455     S
Er307     Ce355    10.04   .     S
Er307     H525    10.073   .     S
Er308     Er311    9.466   1_556     S
Er308     Ce377    10.04   .     S
Er308     Er309    9.422   .     S
Er308     H523    10.073   .     S
Er309     Ce377    10.04   .     S
Er309     H523    10.073   .     S
Er310     Er312    9.466   1_455     S
Er310     Ce440    10.04   .     S
Er310     Er311    9.422   .     S
Er310     H507    10.073   .     S
Er311     Er308    9.466   1_554     S
Er311     Ce440    10.04   .     S
Er311     H507    10.073   .     S
Er312     Er310    9.466   1_655     S
Er312     Ce373    10.04   .     S
Er312     Er313    9.422   .     S
Er312     H459    10.073   .     S
Er313     Ce373    10.04   .     S
Er313     H459    10.073   .     S
Er314     Er335    9.877   .     S
Er314     V350    9.901   1_556     S
Er314     Er324    9.466   .     S
Er314     Ce372    10.04   .     S
Er314     Er315    9.422   .     S
Er314     H540    10.073   .     S
Er315     Er334    9.877   .     S
Er315     V351    9.901   1_556     S
Er315     Er317    9.466   .     S
Er315     Ce372    10.04   .     S
Er315     H540    10.073   .     S
Er316     Er320    9.466   .     S
Er316     Ce395    10.04   .     S
Er316     Er317    9.422   .     S
Er316     H538    10.073   .     S
Er317     Ce395    10.04   .     S
Er317     H538    10.073   .     S
Er318     Er322    9.466   .     S
Er318     Ce404    10.04   .     S
Er318     Er319    9.422   .     S
Er318     H526    10.073   .     S
Er319     Er321    9.466   .     S
Er319     Ce404    10.04   .     S
Er319     H526    10.073   .     S
Er320     V111    9.901   1_655     S
Er320     Ce383    10.04   .     S
Er320     Er321    9.422   .     S
Er320     H537    10.073   .     S
Er321     V110    9.901   1_655     S
Er321     Ce383    10.04   .     S
Er321     H537    10.073   .     S
Er322     Ce435    10.04   .     S
Er322     Er323    9.422   .     S
Er322     H453    10.073   .     S
Er323     Er325    9.466   .     S
Er323     Ce435    10.04   .     S
Er323     H453    10.073   .     S
Er324     Ce406    10.04   .     S
Er324     Er325    9.422   .     S
Er324     H508    10.073   .     S
Er325     Ce406    10.04   .     S
Er325     H508    10.073   .     S
Er326     Er332    9.466   .     S
Er326     Ce431    10.04   .     S
Er326     Er327    9.422   .     S
Er326     H534    10.073   .     S
Er327     Er337    9.466   .     S
Er327     Ce431    10.04   .     S
Er327     H534    10.073   .     S
Er328     V125    9.901   1_565     S
Er328     Er336    9.466   .     S
Er328     Ce375    10.04   .     S
Er328     Er329    9.422   .     S
Er328     H541    10.073   .     S
Er329     V126    9.901   1_565     S
Er329     Er331    9.466   .     S
Er329     Ce375    10.04   .     S
Er329     H541    10.073   .     S
Er330     Er340    9.877   .     S
Er330     Er334    9.466   .     S
Er330     Ce402    10.04   .     S
Er330     Er331    9.422   .     S
Er330     H449    10.073   .     S
Er331     Er341    9.877   .     S
Er331     Ce402    10.04   .     S
Er331     H449    10.073   .     S
Er332     Ce411    10.04   .     S
Er332     Er333    9.422   .     S
Er332     H457    10.073   .     S
Er333     Er335    9.466   .     S
Er333     Ce411    10.04   .     S
Er333     H457    10.073   .     S
Er334     V106    9.901   1_556     S
Er334     Ce379    10.04   .     S
Er334     Er335    9.422   .     S
Er334     H487    10.073   .     S
Er335     V105    9.901   1_556     S
Er335     Ce379    10.04   .     S
Er335     H487    10.073   .     S
Er336     Ce408    10.04   .     S
Er336     Er337    9.422   .     S
Er336     H450    10.073   .     S
Er337     Ce408    10.04   .     S
Er337     H450    10.073   .     S
Er338     Er345    9.466   .     S
Er338     Ce357    10.04   .     S
Er338     Er339    9.422   .     S
Er338     H528    10.073   .     S
Er339     Er341    9.466   1_545     S
Er339     Ce357    10.04   .     S
Er339     H528    10.073   .     S
Er340     Er343    9.466   1_556     S
Er340     Ce401    10.04   .     S
Er340     Er341    9.422   .     S
Er340     H479    10.073   .     S
Er341     Er339    9.466   1_565     S
Er341     Ce401    10.04   .     S
Er341     H479    10.073   .     S
Er342     Er349    9.466   .     S
Er342     Ce366    10.04   .     S
Er342     Er343    9.422   .     S
Er342     H529    10.073   .     S
Er343     Er340    9.466   1_554     S
Er343     Ce366    10.04   .     S
Er343     H529    10.073   .     S
Er344     Er346    9.466   1_556     S
Er344     Ce384    10.04   .     S
Er344     Er345    9.422   .     S
Er344     H464    10.073   .     S
Er345     Ce384    10.04   .     S
Er345     H464    10.073   .     S
Er346     Er344    9.466   1_554     S
Er346     Ce437    10.04   .     S
Er346     Er347    9.422   .     S
Er346     H506    10.073   .     S
Er347     Er348    9.466   1_545     S
Er347     Ce437    10.04   .     S
Er347     H506    10.073   .     S
Er348     Er347    9.466   1_565     S
Er348     Ce376    10.04   .     S
Er348     Er349    9.422   .     S
Er348     H462    10.073   .     S
Er349     Ce376    10.04   .     S
Er349     H462    10.073   .     S
V350     V351    9.882   .     S
V350     V352    9.882   .     S
V350     Er314    9.901   1_554     S
V350     S3    10.073   1_554     S
V351     V352    9.882   .     S
V351     Er315    9.901   1_554     S
V351     S3    10.073   1_554     S
V352     S3    10.073   1_554     S
Ce353     H511    10.146   .     S
Ce353     Ce357    10.334   .     S
Ce353     H458    10.312   .     S
Ce353     H470    10.312   .     S
Ce354     H474    10.146   .     S
Ce354     Ce400    10.334   .     S
Ce354     H485    10.312   .     S
Ce354     H484    10.312   1_565     S
Ce355     H525    10.146   .     S
Ce355     Ce386    10.334   .     S
Ce355     H523    10.312   .     S
Ce355     H477    10.312   1_455     S
Ce356     H481    10.146   .     S
Ce356     Ce403    10.334   .     S
Ce356     H471    10.312   .     S
Ce356     H499    10.312   1_655     S
Ce357     H528    10.146   .     S
Ce357     H464    10.312   .     S
Ce357     H479    10.312   1_545     S
Ce358     H482    10.146   .     S
Ce358     Ce364    10.334   .     S
Ce358     H458    10.312   1_554     S
Ce358     H475    10.312   .     S
Ce359     H539    10.146   .     S
Ce359     Ce360    10.334   .     S
Ce359     H469    10.312   .     S
Ce359     H501    10.312   1_556     S
Ce360     H509    10.146   .     S
Ce360     H530    10.312   1_565     S
Ce360     H514    10.312   .     S
Ce361     H514    10.146   .     S
Ce361     Ce362    10.334   .     S
Ce361     H509    10.312   .     S
Ce361     H495    10.312   .     S
Ce362     H527    10.146   .     S
Ce362     H463    10.312   .     S
Ce362     H476    10.312   1_455     S
Ce363     H504    10.146   .     S
Ce363     Ce368    10.334   .     S
Ce363     H455    10.312   1_455     S
Ce363     H461    10.312   .     S
Ce364     H484    10.146   .     S
Ce364     H480    10.312   .     S
Ce364     H474    10.312   1_545     S
Ce365     H510    10.146   .     S
Ce365     Ce371    10.334   .     S
Ce365     H459    10.312   .     S
Ce365     H477    10.312   1_554     S
Ce366     H529    10.146   .     S
Ce366     Ce390    10.334   .     S
Ce366     H462    10.312   .     S
Ce366     H479    10.312   1_554     S
Ce367     H499    10.146   .     S
Ce367     Ce370    10.334   .     S
Ce367     H494    10.312   .     S
Ce367     H481    10.312   1_455     S
Ce368     H501    10.146   .     S
Ce368     H539    10.312   1_554     S
Ce368     H478    10.312   .     S
Ce369     H494    10.146   .     S
Ce369     Ce377    10.334   .     S
Ce369     H456    10.312   .     S
Ce369     H499    10.312   .     S
Ce370     H530    10.146   .     S
Ce370     H451    10.312   .     S
Ce370     H509    10.312   1_545     S
Ce371     H486    10.146   .     S
Ce371     H455    10.312   .     S
Ce371     H467    10.312   .     S
Ce372     H540    10.146   .     S
Ce372     Ce379    10.334   .     S
Ce372     H508    10.312   .     S
Ce372     H538    10.312   .     S
Ce373     H459    10.146   .     S
Ce373     Ce392    10.334   .     S
Ce373     H507    10.312   1_655     S
Ce373     H510    10.312   .     S
Ce374     H460    10.146   .     S
Ce374     Ce387    10.334   .     S
Ce374     H505    10.312   1_655     S
Ce374     H519    10.312   .     S
Ce375     H541    10.146   .     S
Ce375     Ce378    10.334   .     S
Ce375     H449    10.312   .     S
Ce375     H450    10.312   .     S
Ce376     H462    10.146   .     S
Ce376     Ce385    10.334   .     S
Ce376     H506    10.312   1_565     S
Ce376     H529    10.312   .     S
Ce377     H523    10.146   .     S
Ce377     H507    10.312   1_556     S
Ce377     H525    10.312   .     S
Ce378     H535    10.146   .     S
Ce378     H513    10.312   .     S
Ce378     H533    10.312   .     S
Ce379     H487    10.146   .     S
Ce379     H457    10.312   .     S
Ce379     H449    10.312   .     S
Ce380     H463    10.146   .     S
Ce380     Ce407    10.334   .     S
Ce380     H505    10.312   1_565     S
Ce380     H527    10.312   .     S
Ce381     H451    10.146   .     S
Ce381     Ce384    10.334   .     S
Ce381     H493    10.312   .     S
Ce381     H530    10.312   .     S
Ce382     H536    10.146   .     S
Ce382     Ce383    10.334   .     S
Ce382     H512    10.312   .     S
Ce382     H533    10.312   .     S
Ce383     H537    10.146   .     S
Ce383     H538    10.312   .     S
Ce383     H526    10.312   .     S
Ce384     H464    10.146   .     S
Ce384     H506    10.312   1_556     S
Ce384     H528    10.312   .     S
Ce385     H478    10.146   .     S
Ce385     H490    10.312   .     S
Ce385     H501    10.312   .     S
Ce386     H469    10.146   .     S
Ce386     H539    10.312   .     S
Ce386     H472    10.312   .     S
Ce387     H480    10.146   .     S
Ce387     H524    10.312   .     S
Ce387     H484    10.312   .     S
Ce388     H471    10.146   .     S
Ce388     Ce389    10.334   .     S
Ce388     H481    10.312   .     S
Ce388     H452    10.312   .     S
Ce389     H519    10.146   .     S
Ce389     H460    10.312   .     S
Ce389     H476    10.312   1_545     S
Ce390     H485    10.146   .     S
Ce390     H474    10.312   .     S
Ce390     H454    10.312   .     S
Ce391     H452    10.146   .     S
Ce391     Ce404    10.334   .     S
Ce391     H456    10.312   1_655     S
Ce391     H471    10.312   .     S
Ce392     H475    10.146   .     S
Ce392     H473    10.312   .     S
Ce392     H482    10.312   .     S
Ce393     H476    10.146   .     S
Ce393     Ce405    10.334   .     S
Ce393     H519    10.312   1_565     S
Ce393     H527    10.312   1_655     S
Ce394     H467    10.146   .     S
Ce394     Ce396    10.334   .     S
Ce394     H468    10.312   1_655     S
Ce394     H486    10.312   .     S
Ce395     H538    10.146   .     S
Ce395     Ce397    10.334   .     S
Ce395     H537    10.312   .     S
Ce395     H540    10.312   .     S
Ce396     H512    10.146   .     S
Ce396     H544    10.312   .     S
Ce396     H536    10.312   .     S
Ce397     H477    10.146   .     S
Ce397     H525    10.312   1_655     S
Ce397     H510    10.312   1_556     S
Ce398     H513    10.146   .     S
Ce398     Ce399    10.334   .     S
Ce398     H544    10.312   .     S
Ce398     H535    10.312   .     S
Ce399     H454    10.146   .     S
Ce399     H524    10.312   1_565     S
Ce399     H485    10.312   .     S
Ce400     H455    10.146   .     S
Ce400     H504    10.312   1_655     S
Ce400     H486    10.312   .     S
Ce401     H479    10.146   .     S
Ce401     Ce402    10.334   .     S
Ce401     H528    10.312   1_565     S
Ce401     H529    10.312   1_556     S
Ce402     H449    10.146   .     S
Ce402     H487    10.312   .     S
Ce402     H541    10.312   .     S
Ce403     H458    10.146   .     S
Ce403     H482    10.312   1_556     S
Ce403     H511    10.312   .     S
Ce404     H526    10.146   .     S
Ce404     H453    10.312   .     S
Ce404     H537    10.312   .     S
Ce405     H533    10.146   .     S
Ce405     H536    10.312   .     S
Ce405     H535    10.312   .     S
Ce406     H508    10.146   .     S
Ce406     Ce412    10.334   .     S
Ce406     H453    10.312   .     S
Ce406     H540    10.312   .     S
Ce407     H461    10.146   .     S
Ce407     H468    10.312   .     S
Ce407     H504    10.312   .     S
Ce408     H450    10.146   .     S
Ce408     Ce410    10.334   .     S
Ce408     H534    10.312   .     S
Ce408     H541    10.312   .     S
Ce409     H488    10.146   .     S
Ce409     Ce425    10.334   .     S
Ce409     H503    10.312   .     S
Ce409     H516    10.312   .     S
Ce410     H495    10.146   .     S
Ce410     H493    10.312   1_565     S
Ce410     H514    10.312   .     S
Ce411     H457    10.146   .     S
Ce411     Ce415    10.334   .     S
Ce411     H534    10.312   .     S
Ce411     H487    10.312   .     S
Ce412     H470    10.146   .     S
Ce412     H473    10.312   1_556     S
Ce412     H511    10.312   .     S
Ce413     H517    10.146   .     S
Ce413     Ce448    10.334   .     S
Ce413     H516    10.312   .     S
Ce413     H489    10.312   .     S
Ce414     H522    10.146   .     S
Ce414     Ce423    10.334   .     S
Ce414     H531    10.312   .     S
Ce414     H491    10.312   .     S
Ce415     H472    10.146   .     S
Ce415     H490    10.312   1_556     S
Ce415     H469    10.312   .     S
Ce416     H456    10.146   .     S
Ce416     Ce428    10.334   .     S
Ce416     H494    10.312   .     S
Ce416     H452    10.312   1_455     S
Ce417     H524    10.146   .     S
Ce417     Ce424    10.334   .     S
Ce417     H480    10.312   .     S
Ce417     H454    10.312   1_545     S
Ce418     H500    10.146   .     S
Ce418     Ce444    10.334   .     S
Ce418     H497    10.312   .     S
Ce418     H465    10.312   .     S
Ce419     H531    10.146   .     S
Ce419     Ce440    10.334   .     S
Ce419     H498    10.312   .     S
Ce419     H522    10.312   .     S
Ce420     H490    10.146   .     S
Ce420     Ce421    10.334   .     S
Ce420     H472    10.312   1_554     S
Ce420     H478    10.312   .     S
Ce421     H491    10.146   .     S
Ce421     H466    10.312   .     S
Ce421     H522    10.312   .     S
Ce422     H532    10.146   .     S
Ce422     Ce441    10.334   .     S
Ce422     H498    10.312   .     S
Ce422     H466    10.312   .     S
Ce423     H497    10.146   .     S
Ce423     H500    10.312   .     S
Ce423     H492    10.312   .     S
Ce424     H518    10.146   .     S
Ce424     H496    10.312   .     S
Ce424     H465    10.312   .     S
Ce425     H498    10.146   .     S
Ce425     H532    10.312   .     S
Ce425     H531    10.312   .     S
Ce426     H505    10.146   .     S
Ce426     Ce432    10.334   .     S
Ce426     H460    10.312   1_455     S
Ce426     H463    10.312   1_545     S
Ce427     H492    10.146   .     S
Ce427     Ce437    10.334   .     S
Ce427     H497    10.312   .     S
Ce427     H496    10.312   .     S
Ce428     H516    10.146   .     S
Ce428     H488    10.312   .     S
Ce428     H517    10.312   .     S
Ce429     H502    10.146   .     S
Ce429     Ce431    10.334   .     S
Ce429     H520    10.312   .     S
Ce429     H521    10.312   .     S
Ce430     H544    10.146   .     S
Ce430     Ce436    10.334   .     S
Ce430     H513    10.312   .     S
Ce430     H512    10.312   .     S
Ce431     H534    10.146   .     S
Ce431     H457    10.312   .     S
Ce431     H450    10.312   .     S
Ce432     H503    10.146   .     S
Ce432     H483    10.312   .     S
Ce432     H488    10.312   .     S
Ce433     H466    10.146   .     S
Ce433     Ce446    10.334   .     S
Ce433     H491    10.312   .     S
Ce433     H532    10.312   .     S
Ce434     H542    10.146   .     S
Ce434     Ce435    10.334   .     S
Ce434     H515    10.312   .     S
Ce434     H521    10.312   .     S
Ce435     H453    10.146   .     S
Ce435     H526    10.312   .     S
Ce435     H508    10.312   .     S
Ce436     H543    10.146   .     S
Ce436     H515    10.312   .     S
Ce436     H520    10.312   .     S
Ce437     H506    10.146   .     S
Ce437     H462    10.312   1_545     S
Ce437     H464    10.312   1_554     S
Ce438     H489    10.146   .     S
Ce438     Ce439    10.334   .     S
Ce438     H483    10.312   .     S
Ce438     H517    10.312   .     S
Ce439     H493    10.146   .     S
Ce439     H451    10.312   .     S
Ce439     H495    10.312   1_545     S
Ce440     H507    10.146   .     S
Ce440     H459    10.312   1_455     S
Ce440     H523    10.312   1_554     S
Ce441     H468    10.146   .     S
Ce441     H461    10.312   .     S
Ce441     H467    10.312   1_455     S
Ce442     H465    10.146   .     S
Ce442     Ce445    10.334   .     S
Ce442     H518    10.312   .     S
Ce442     H500    10.312   .     S
Ce443     H496    10.146   .     S
Ce443     Ce447    10.334   .     S
Ce443     H518    10.312   .     S
Ce443     H492    10.312   .     S
Ce444     H473    10.146   .     S
Ce444     H475    10.312   .     S
Ce444     H470    10.312   1_554     S
Ce445     H515    10.146   .     S
Ce445     H542    10.312   .     S
Ce445     H543    10.312   .     S
Ce446     H520    10.146   .     S
Ce446     H502    10.312   .     S
Ce446     H543    10.312   .     S
Ce447     H483    10.146   .     S
Ce447     H489    10.312   .     S
Ce447     H503    10.312   .     S
Ce448     H521    10.146   .     S
Ce448     H502    10.312   .     S
Ce448     H542    10.312   .     S
H452     S26    10.293   1_655     S
H452     Ce416    10.312   1_655     S
H454     S17    10.293   1_565     S
H454     Ce417    10.312   1_565     S
H455     S28    10.293   1_655     S
H455     Ce363    10.312   1_655     S
H456     S8    10.293   1_455     S
H456     Ce391    10.312   1_455     S
H458     S32    10.293   1_556     S
H458     Ce358    10.312   1_556     S
H459     S27    10.293   1_655     S
H459     Ce440    10.312   1_655     S
H460     S26    10.293   1_655     S
H460     Ce426    10.312   1_655     S
H462     S17    10.293   1_565     S
H462     Ce437    10.312   1_565     S
H463     S14    10.293   1_565     S
H463     Ce426    10.312   1_565     S
H464     S29    10.293   1_556     S
H464     Ce437    10.312   1_556     S
H467     S27    10.293   1_655     S
H467     Ce441    10.312   1_655     S
H468     S7    10.293   1_455     S
H468     Ce394    10.312   1_455     S
H470     S29    10.293   1_556     S
H470     Ce444    10.312   1_556     S
H472     S15    10.293   1_556     S
H472     Ce420    10.312   1_556     S
H473     S3    10.293   1_554     S
H473     Ce412    10.312   1_554     S
H474     S32    10.293   1_565     S
H474     Ce364    10.312   1_565     S
H476     S30    10.293   1_665     S
H476     Ce362    10.312   1_655     S
H476     Ce389    10.312   1_565     S
H477     S28    10.293   1_656     S
H477     Ce365    10.312   1_556     S
H477     Ce355    10.312   1_655     S
H479     S32    10.293   1_566     S
H479     Ce366    10.312   1_556     S
H479     Ce357    10.312   1_565     S
H481     S30    10.293   1_655     S
H481     Ce367    10.312   1_655     S
H482     S21    10.293   1_554     S
H482     Ce403    10.312   1_554     S
H484     S25    10.293   1_545     S
H484     Ce354    10.312   1_545     S
H490     S2    10.293   1_554     S
H490     Ce415    10.312   1_554     S
H493     S10    10.293   1_545     S
H493     Ce410    10.312   1_545     S
H495     S14    10.293   1_565     S
H495     Ce439    10.312   1_565     S
H499     S21    10.293   1_455     S
H499     Ce356    10.312   1_455     S
H501     S23    10.293   1_554     S
H501     Ce359    10.312   1_554     S
H504     S25    10.293   1_455     S
H504     Ce400    10.312   1_455     S
H505     S25    10.293   1_445     S
H505     Ce380    10.312   1_545     S
H505     Ce374    10.312   1_455     S
H506     S23    10.293   1_544     S
H506     Ce384    10.312   1_554     S
H506     Ce376    10.312   1_545     S
H507     S21    10.293   1_454     S
H507     Ce373    10.312   1_455     S
H507     Ce377    10.312   1_554     S
H509     S30    10.293   1_565     S
H509     Ce370    10.312   1_565     S
H510     S3    10.293   1_554     S
H510     Ce397    10.312   1_554     S
H519     S11    10.293   1_545     S
H519     Ce393    10.312   1_545     S
H523     S15    10.293   1_556     S
H523     Ce440    10.312   1_556     S
H524     S11    10.293   1_545     S
H524     Ce399    10.312   1_545     S
H525     S8    10.293   1_455     S
H525     Ce397    10.312   1_455     S
H527     S7    10.293   1_455     S
H527     Ce393    10.312   1_455     S
H528     S10    10.293   1_545     S
H528     Ce401    10.312   1_545     S
H529     S2    10.293   1_554     S
H529     Ce401    10.312   1_554     S
H530     S23    10.293   1_545     S
H530     Ce360    10.312   1_545     S
H539     S28    10.293   1_556     S
H539     Ce368    10.312   1_556     S
