data_jak
_audit_creation_date              2020-02-04
_audit_creation_method            'Pymatgen'
_symmetry_space_group_name_H-M    'P1'
_symmetry_Int_Tables_number       1
loop_
_symmetry_equiv_pos_as_xyz
  x,y,z
_cell_length_a                    75.4839
_cell_length_b                    75.4839
_cell_length_c                    75.4839
_cell_angle_alpha                 90.0
_cell_angle_beta                 90.0
_cell_angle_gamma                 90.0
loop_
_atom_site_label
_atom_site_type_symbol
_atom_site_fract_x
_atom_site_fract_y
_atom_site_fract_z
V1     V     0.7592   0.1679   0.1679
V2     V     0.7592   0.0821   0.0821
V3     V     0.4908   0.0821   0.1679
V4     V     0.4908   0.1679   0.0821
V5     V     0.6679   0.2592   0.1679
V6     V     0.5821   0.2592   0.0821
V7     V     0.5821   0.0821   0.2592
V8     V     0.6679   0.1679   0.2592
V9     V     0.5821   0.9908   0.1679
V10     V     0.6679   0.9908   0.0821
V11     V     0.6679   0.0821   0.9908
V12     V     0.5821   0.1679   0.9908
V13     V     0.0821   0.6679   0.9908
V14     V     0.1679   0.5821   0.9908
V15     V     0.1679   0.6679   0.2592
V16     V     0.0821   0.5821   0.2592
V17     V     0.1679   0.4908   0.0821
V18     V     0.0821   0.4908   0.1679
V19     V     0.9908   0.6679   0.0821
V20     V     0.9908   0.5821   0.1679
V21     V     0.2592   0.6679   0.1679
V22     V     0.2592   0.5821   0.0821
V23     V     0.0821   0.7592   0.0821
V24     V     0.1679   0.7592   0.1679
V25     V     0.2592   0.1679   0.6679
V26     V     0.2592   0.0821   0.5821
V27     V     0.0821   0.2592   0.5821
V28     V     0.1679   0.2592   0.6679
V29     V     0.9908   0.0821   0.6679
V30     V     0.9908   0.1679   0.5821
V31     V     0.0821   0.0821   0.7592
V32     V     0.1679   0.1679   0.7592
V33     V     0.1679   0.9908   0.5821
V34     V     0.0821   0.9908   0.6679
V35     V     0.0821   0.1679   0.4908
V36     V     0.1679   0.0821   0.4908
V37     V     0.9179   0.8321   0.5092
V38     V     0.8321   0.9179   0.5092
V39     V     0.0092   0.9179   0.3321
V40     V     0.0092   0.8321   0.4179
V41     V     0.9179   0.0092   0.3321
V42     V     0.8321   0.0092   0.4179
V43     V     0.9179   0.7408   0.4179
V44     V     0.8321   0.7408   0.3321
V45     V     0.9179   0.9179   0.2408
V46     V     0.8321   0.8321   0.2408
V47     V     0.7408   0.8321   0.3321
V48     V     0.7408   0.9179   0.4179
V49     V     0.0092   0.3321   0.9179
V50     V     0.0092   0.4179   0.8321
V51     V     0.8321   0.4179   0.0092
V52     V     0.9179   0.3321   0.0092
V53     V     0.8321   0.3321   0.7408
V54     V     0.9179   0.4179   0.7408
V55     V     0.9179   0.5092   0.8321
V56     V     0.8321   0.5092   0.9179
V57     V     0.9179   0.2408   0.9179
V58     V     0.8321   0.2408   0.8321
V59     V     0.7408   0.4179   0.9179
V60     V     0.7408   0.3321   0.8321
V61     V     0.3321   0.9179   0.0092
V62     V     0.4179   0.8321   0.0092
V63     V     0.3321   0.0092   0.9179
V64     V     0.4179   0.0092   0.8321
V65     V     0.5092   0.8321   0.9179
V66     V     0.5092   0.9179   0.8321
V67     V     0.4179   0.7408   0.9179
V68     V     0.3321   0.7408   0.8321
V69     V     0.2408   0.9179   0.9179
V70     V     0.2408   0.8321   0.8321
V71     V     0.4179   0.9179   0.7408
V72     V     0.3321   0.8321   0.7408
V73     V     0.4179   0.4179   0.2408
V74     V     0.3321   0.3321   0.2408
V75     V     0.4179   0.2408   0.4179
V76     V     0.3321   0.2408   0.3321
V77     V     0.2408   0.4179   0.4179
V78     V     0.2408   0.3321   0.3321
V79     V     0.4179   0.3321   0.5092
V80     V     0.3321   0.4179   0.5092
V81     V     0.3321   0.5092   0.4179
V82     V     0.4179   0.5092   0.3321
V83     V     0.5092   0.3321   0.4179
V84     V     0.5092   0.4179   0.3321
Ti85     Ti     0.96   0.1204   0.96
Ce86     Ce     0.9186   0.009   0.9186
Ce87     Ce     0.8314   0.009   0.8314
Ti88     Ti     0.79   0.1204   0.79
Ti89     Ti     0.6296   0.79   0.96
Ce90     Ce     0.741   0.8314   0.9186
Ce91     Ce     0.741   0.9186   0.8314
Ti92     Ti     0.6296   0.96   0.79
Ti93     Ti     0.96   0.79   0.6296
Ce94     Ce     0.9186   0.8314   0.741
Ce95     Ce     0.8314   0.9186   0.741
Ti96     Ti     0.79   0.96   0.6296
Ti97     Ti     0.96   0.6296   0.79
Ce98     Ce     0.8314   0.741   0.9186
Ce99     Ce     0.9186   0.741   0.8314
Ti100     Ti     0.79   0.6296   0.96
Ti101     Ti     0.96   0.96   0.1204
Ce102     Ce     0.9186   0.9186   0.009
Ce103     Ce     0.8314   0.8314   0.009
Ti104     Ti     0.79   0.79   0.1204
Ti105     Ti     0.1204   0.96   0.96
Ce106     Ce     0.009   0.9186   0.9186
Ce107     Ce     0.009   0.8314   0.8314
Ti108     Ti     0.1204   0.79   0.79
Ti109     Ti     0.6204   0.29   0.79
Ce110     Ce     0.509   0.4186   0.9186
Ce111     Ce     0.509   0.3314   0.8314
Ti112     Ti     0.6204   0.46   0.96
Ti113     Ti     0.46   0.46   0.1204
Ce114     Ce     0.4186   0.4186   0.009
Ce115     Ce     0.3314   0.3314   0.009
Ti116     Ti     0.29   0.29   0.1204
Ti117     Ti     0.29   0.46   0.6296
Ce118     Ce     0.3314   0.4186   0.741
Ce119     Ce     0.4186   0.3314   0.741
Ti120     Ti     0.46   0.29   0.6296
Ti121     Ti     0.29   0.1296   0.96
Ce122     Ce     0.3314   0.241   0.9186
Ce123     Ce     0.4186   0.241   0.8314
Ti124     Ti     0.46   0.1296   0.79
Ti125     Ti     0.29   0.6204   0.79
Ce126     Ce     0.4186   0.509   0.9186
Ce127     Ce     0.3314   0.509   0.8314
Ti128     Ti     0.46   0.6204   0.96
Ti129     Ti     0.1297   0.29   0.96
Ce130     Ce     0.241   0.3314   0.9186
Ce131     Ce     0.241   0.4186   0.8314
Ti132     Ti     0.1297   0.46   0.79
Ti133     Ti     0.21   0.21   0.8796
Ce134     Ce     0.1686   0.1686   0.991
Ce135     Ce     0.0814   0.0814   0.991
Ti136     Ti     0.04   0.04   0.8796
Ti137     Ti     0.8796   0.21   0.21
Ce138     Ce     0.991   0.1686   0.1686
Ce139     Ce     0.991   0.0814   0.0814
Ti140     Ti     0.8796   0.04   0.04
Ti141     Ti     0.21   0.8796   0.21
Ce142     Ce     0.0814   0.991   0.0814
Ce143     Ce     0.1686   0.991   0.1686
Ti144     Ti     0.04   0.8796   0.04
Ti145     Ti     0.3703   0.21   0.04
Ce146     Ce     0.259   0.0814   0.1686
Ce147     Ce     0.259   0.1686   0.0814
Ti148     Ti     0.3703   0.04   0.21
Ti149     Ti     0.04   0.3704   0.21
Ce150     Ce     0.0814   0.259   0.1686
Ce151     Ce     0.1686   0.259   0.0814
Ti152     Ti     0.21   0.3704   0.04
Ti153     Ti     0.21   0.04   0.3703
Ce154     Ce     0.0814   0.1686   0.259
Ce155     Ce     0.1686   0.0814   0.259
Ti156     Ti     0.04   0.21   0.3703
Ti157     Ti     0.54   0.8796   0.54
Ce158     Ce     0.6686   0.991   0.6686
Ce159     Ce     0.5814   0.991   0.5814
Ti160     Ti     0.71   0.8796   0.71
Ti161     Ti     0.8704   0.04   0.71
Ce162     Ce     0.759   0.1686   0.5814
Ce163     Ce     0.759   0.0814   0.6686
Ti164     Ti     0.8704   0.21   0.54
Ti165     Ti     0.54   0.21   0.8704
Ce166     Ce     0.5814   0.1686   0.759
Ce167     Ce     0.6686   0.0814   0.759
Ti168     Ti     0.71   0.04   0.8704
Ti169     Ti     0.54   0.3704   0.71
Ce170     Ce     0.5814   0.259   0.6686
Ce171     Ce     0.6686   0.259   0.5814
Ti172     Ti     0.71   0.3704   0.54
Ti173     Ti     0.3796   0.21   0.71
Ce174     Ce     0.491   0.1686   0.6686
Ce175     Ce     0.491   0.0814   0.5814
Ti176     Ti     0.3796   0.04   0.54
Ti177     Ti     0.71   0.21   0.3796
Ce178     Ce     0.6686   0.1686   0.491
Ce179     Ce     0.5814   0.0814   0.491
Ti180     Ti     0.54   0.04   0.3796
Ti181     Ti     0.96   0.6204   0.46
Ce182     Ce     0.9186   0.509   0.4186
Ce183     Ce     0.8314   0.509   0.3314
Ti184     Ti     0.79   0.6204   0.29
Ti185     Ti     0.96   0.29   0.1297
Ce186     Ce     0.9186   0.3314   0.241
Ce187     Ce     0.8314   0.4186   0.241
Ti188     Ti     0.79   0.46   0.1296
Ti189     Ti     0.1204   0.29   0.29
Ce190     Ce     0.009   0.3314   0.3314
Ce191     Ce     0.009   0.4186   0.4186
Ti192     Ti     0.1204   0.46   0.46
Ti193     Ti     0.96   0.46   0.6204
Ce194     Ce     0.9186   0.4186   0.509
Ce195     Ce     0.8314   0.3314   0.509
Ti196     Ti     0.79   0.29   0.6204
Ti197     Ti     0.6296   0.29   0.46
Ce198     Ce     0.741   0.4186   0.3314
Ce199     Ce     0.741   0.3314   0.4186
Ti200     Ti     0.6296   0.46   0.29
Ti201     Ti     0.79   0.1296   0.46
Ce202     Ce     0.9186   0.241   0.3314
Ce203     Ce     0.8314   0.241   0.4186
Ti204     Ti     0.96   0.1296   0.29
Ti205     Ti     0.54   0.54   0.8796
Ce206     Ce     0.5814   0.5814   0.991
Ce207     Ce     0.6686   0.6686   0.991
Ti208     Ti     0.71   0.71   0.8796
Ti209     Ti     0.71   0.8704   0.04
Ce210     Ce     0.6686   0.759   0.0814
Ce211     Ce     0.5814   0.759   0.1686
Ti212     Ti     0.54   0.8704   0.21
Ti213     Ti     0.8704   0.54   0.21
Ce214     Ce     0.759   0.6686   0.0814
Ce215     Ce     0.759   0.5814   0.1686
Ti216     Ti     0.8704   0.71   0.04
Ti217     Ti     0.71   0.3796   0.21
Ce218     Ce     0.6686   0.491   0.1686
Ce219     Ce     0.5814   0.491   0.0814
Ti220     Ti     0.54   0.3796   0.04
Ti221     Ti     0.71   0.54   0.3703
Ce222     Ce     0.5814   0.6686   0.259
Ce223     Ce     0.6686   0.5814   0.259
Ti224     Ti     0.54   0.71   0.3704
Ti225     Ti     0.3796   0.54   0.04
Ce226     Ce     0.491   0.6686   0.1686
Ce227     Ce     0.491   0.5814   0.0814
Ti228     Ti     0.3796   0.71   0.21
Ti229     Ti     0.3703   0.54   0.71
Ce230     Ce     0.259   0.5814   0.6686
Ce231     Ce     0.259   0.6686   0.5814
Ti232     Ti     0.3703   0.71   0.54
Ti233     Ti     0.21   0.8704   0.54
Ce234     Ce     0.1686   0.759   0.5814
Ce235     Ce     0.0814   0.759   0.6686
Ti236     Ti     0.04   0.8704   0.71
Ti237     Ti     0.04   0.71   0.8704
Ce238     Ce     0.1686   0.5814   0.759
Ce239     Ce     0.0814   0.6686   0.759
Ti240     Ti     0.21   0.54   0.8704
Ti241     Ti     0.8796   0.54   0.54
Ce242     Ce     0.991   0.5814   0.5814
Ce243     Ce     0.991   0.6686   0.6686
Ti244     Ti     0.8796   0.71   0.71
Ti245     Ti     0.04   0.3796   0.54
Ce246     Ce     0.0814   0.491   0.5814
Ce247     Ce     0.1686   0.491   0.6686
Ti248     Ti     0.21   0.3796   0.71
Ti249     Ti     0.04   0.54   0.3796
Ce250     Ce     0.1686   0.6686   0.491
Ce251     Ce     0.0814   0.5814   0.491
Ti252     Ti     0.21   0.71   0.3796
Ti253     Ti     0.29   0.1204   0.29
Ce254     Ce     0.4186   0.009   0.4186
Ce255     Ce     0.3314   0.009   0.3314
Ti256     Ti     0.46   0.1204   0.46
Ti257     Ti     0.46   0.79   0.1296
Ce258     Ce     0.3314   0.9186   0.241
Ce259     Ce     0.4186   0.8314   0.241
Ti260     Ti     0.29   0.96   0.1296
Ti261     Ti     0.6204   0.96   0.46
Ce262     Ce     0.509   0.9186   0.4186
Ce263     Ce     0.509   0.8314   0.3314
Ti264     Ti     0.6204   0.79   0.29
Ti265     Ti     0.46   0.6296   0.29
Ce266     Ce     0.4186   0.741   0.3314
Ce267     Ce     0.3314   0.741   0.4186
Ti268     Ti     0.29   0.6296   0.46
Ti269     Ti     0.1297   0.96   0.29
Ce270     Ce     0.241   0.9186   0.3314
Ce271     Ce     0.241   0.8314   0.4186
Ti272     Ti     0.1297   0.79   0.46
Ti273     Ti     0.46   0.96   0.6204
Ce274     Ce     0.4186   0.9186   0.509
Ce275     Ce     0.3314   0.8314   0.509
Ti276     Ti     0.29   0.79   0.6204
V277     V     0.5821   0.6679   0.4908
V278     V     0.6679   0.5821   0.4908
V279     V     0.4908   0.6679   0.5821
V280     V     0.4908   0.5821   0.6679
V281     V     0.6679   0.6679   0.7592
V282     V     0.5821   0.5821   0.7592
V283     V     0.6679   0.7592   0.6679
V284     V     0.5821   0.7592   0.5821
V285     V     0.7592   0.5821   0.5821
V286     V     0.7592   0.6679   0.6679
V287     V     0.6679   0.4908   0.5821
V288     V     0.5821   0.4908   0.6679
Er289     Er     0.7937   0.9563   0.2937
Er290     Er     0.7063   0.2063   0.0437
Er291     Er     0.0437   0.2063   0.7063
Er292     Er     0.7063   0.0437   0.2063
Er293     Er     0.2063   0.7063   0.0437
Er294     Er     0.2937   0.4563   0.2937
Er295     Er     0.5437   0.5437   0.5437
Er296     Er     0.7937   0.2937   0.9563
Er297     Er     0.2937   0.2937   0.4563
Er298     Er     0.9563   0.7937   0.2937
Er299     Er     0.2937   0.7937   0.9563
Er300     Er     0.2063   0.5437   0.2063
Er301     Er     0.7063   0.7063   0.5437
Er302     Er     0.9563   0.2937   0.7937
Er303     Er     0.0437   0.7063   0.2063
Er304     Er     0.2937   0.9563   0.7937
Er305     Er     0.4563   0.2937   0.2937
Er306     Er     0.2063   0.2063   0.5437
Er307     Er     0.5437   0.2063   0.2063
Er308     Er     0.2063   0.0437   0.7063
Er309     Er     0.0437   0.0437   0.5437
Er310     Er     0.9563   0.9563   0.4563
Er311     Er     0.5437   0.0437   0.0437
Er312     Er     0.9563   0.4563   0.9563
Er313     Er     0.0437   0.5437   0.0437
Er314     Er     0.4563   0.9563   0.9563
Er315     Er     0.7937   0.4563   0.7937
Er316     Er     0.7937   0.7937   0.4563
Er317     Er     0.4563   0.7937   0.7937
Er318     Er     0.7063   0.5437   0.7063
Er319     Er     0.5437   0.7063   0.7063
Er320     Er     0.4563   0.4563   0.4563
loop_
_geom_bond_atom_site_label_1
_geom_bond_atom_site_label_2
_geom_bond_distance
_geom_bond_site_symmetry_2
_ccdc_geom_bond_type
V1     V2    9.159   .     S
V1     Ti137    10.143   .     S
V1     Er290    10.593   .     S
V1     Er292    10.593   .     S
V1     V5    9.743   .     S
V1     V8    9.743   .     S
V2     Ti140    10.143   .     S
V2     Er290    10.593   .     S
V2     Er292    10.593   .     S
V2     V10    9.743   1_545     S
V2     V11    9.743   1_554     S
V3     V4    9.159   .     S
V3     Ti148    10.143   .     S
V3     Er307    10.593   .     S
V3     Er311    10.593   .     S
V3     V7    9.743   .     S
V3     V9    9.743   1_545     S
V4     Ti145    10.143   .     S
V4     Er307    10.593   .     S
V4     Er311    10.593   .     S
V4     V6    9.743   .     S
V4     V12    9.743   1_554     S
V5     V6    9.159   .     S
V5     Ti217    10.143   .     S
V5     Er290    10.593   .     S
V5     Er307    10.593   .     S
V5     V8    9.743   .     S
V6     Ti220    10.143   .     S
V6     Er290    10.593   .     S
V6     Er307    10.593   .     S
V6     V12    9.743   1_554     S
V7     V8    9.159   .     S
V7     Ti180    10.143   .     S
V7     Er307    10.593   .     S
V7     Er292    10.593   .     S
V7     V9    9.743   1_545     S
V8     Ti177    10.143   .     S
V8     Er307    10.593   .     S
V8     Er292    10.593   .     S
V9     V10    9.159   .     S
V9     Ti212    10.143   .     S
V9     Er292    10.593   1_565     S
V9     Er311    10.593   1_565     S
V9     V7    9.743   1_565     S
V9     V3    9.743   1_565     S
V10     Ti209    10.143   .     S
V10     Er292    10.593   1_565     S
V10     Er311    10.593   1_565     S
V10     V2    9.743   1_565     S
V10     V11    9.743   1_564     S
V11     V12    9.159   .     S
V11     Ti168    10.143   .     S
V11     Er290    10.593   1_556     S
V11     Er311    10.593   1_556     S
V11     V2    9.743   1_556     S
V11     V10    9.743   1_546     S
V12     Ti165    10.143   .     S
V12     Er290    10.593   1_556     S
V12     Er311    10.593   1_556     S
V12     V4    9.743   1_556     S
V12     V6    9.743   1_556     S
V13     V14    9.159   .     S
V13     Ti237    10.143   .     S
V13     Er293    10.593   1_556     S
V13     Er313    10.593   1_556     S
V13     V19    9.743   1_456     S
V13     V23    9.743   1_556     S
V14     Ti240    10.143   .     S
V14     Er293    10.593   1_556     S
V14     Er313    10.593   1_556     S
V14     V22    9.743   1_556     S
V14     V17    9.743   1_556     S
V15     V16    9.159   .     S
V15     Ti252    10.143   .     S
V15     Er300    10.593   .     S
V15     Er303    10.593   .     S
V15     V24    9.743   .     S
V15     V21    9.743   .     S
V16     Ti249    10.143   .     S
V16     Er300    10.593   .     S
V16     Er303    10.593   .     S
V16     V18    9.743   .     S
V16     V20    9.743   1_455     S
V17     V18    9.159   .     S
V17     Ti152    10.143   .     S
V17     Er300    10.593   .     S
V17     Er313    10.593   .     S
V17     V14    9.743   1_554     S
V17     V22    9.743   .     S
V18     Ti149    10.143   .     S
V18     Er300    10.593   .     S
V18     Er313    10.593   .     S
V18     V20    9.743   1_455     S
V19     V20    9.159   .     S
V19     Ti216    10.143   .     S
V19     Er303    10.593   1_655     S
V19     Er313    10.593   1_655     S
V19     V13    9.743   1_654     S
V19     V23    9.743   1_655     S
V20     Ti213    10.143   .     S
V20     Er303    10.593   1_655     S
V20     Er313    10.593   1_655     S
V20     V16    9.743   1_655     S
V20     V18    9.743   1_655     S
V21     V22    9.159   .     S
V21     Ti228    10.143   .     S
V21     Er293    10.593   .     S
V21     Er300    10.593   .     S
V21     V24    9.743   .     S
V22     Ti225    10.143   .     S
V22     Er293    10.593   .     S
V22     Er300    10.593   .     S
V22     V14    9.743   1_554     S
V23     V24    9.159   .     S
V23     Ti144    10.143   .     S
V23     Er293    10.593   .     S
V23     Er303    10.593   .     S
V23     V13    9.743   1_554     S
V23     V19    9.743   1_455     S
V24     Ti141    10.143   .     S
V24     Er293    10.593   .     S
V24     Er303    10.593   .     S
V25     V26    9.159   .     S
V25     Ti173    10.143   .     S
V25     Er308    10.593   .     S
V25     Er306    10.593   .     S
V25     V32    9.743   .     S
V25     V28    9.743   .     S
V26     Ti176    10.143   .     S
V26     Er308    10.593   .     S
V26     Er306    10.593   .     S
V26     V36    9.743   .     S
V26     V33    9.743   1_545     S
V27     V28    9.159   .     S
V27     Ti245    10.143   .     S
V27     Er306    10.593   .     S
V27     Er291    10.593   .     S
V27     V30    9.743   1_455     S
V27     V35    9.743   .     S
V28     Ti248    10.143   .     S
V28     Er306    10.593   .     S
V28     Er291    10.593   .     S
V28     V32    9.743   .     S
V29     V30    9.159   .     S
V29     Ti161    10.143   .     S
V29     Er309    10.593   1_655     S
V29     Er291    10.593   1_655     S
V29     V31    9.743   1_655     S
V29     V34    9.743   1_645     S
V30     Ti164    10.143   .     S
V30     Er309    10.593   1_655     S
V30     Er291    10.593   1_655     S
V30     V27    9.743   1_655     S
V30     V35    9.743   1_655     S
V31     V32    9.159   .     S
V31     Ti136    10.143   .     S
V31     Er308    10.593   .     S
V31     Er291    10.593   .     S
V31     V29    9.743   1_455     S
V31     V34    9.743   1_545     S
V32     Ti133    10.143   .     S
V32     Er308    10.593   .     S
V32     Er291    10.593   .     S
V33     V34    9.159   .     S
V33     Ti233    10.143   .     S
V33     Er308    10.593   1_565     S
V33     Er309    10.593   1_565     S
V33     V26    9.743   1_565     S
V33     V36    9.743   1_565     S
V34     Ti236    10.143   .     S
V34     Er308    10.593   1_565     S
V34     Er309    10.593   1_565     S
V34     V31    9.743   1_565     S
V34     V29    9.743   1_465     S
V35     V36    9.159   .     S
V35     Ti156    10.143   .     S
V35     Er309    10.593   .     S
V35     Er306    10.593   .     S
V35     V30    9.743   1_455     S
V36     Ti153    10.143   .     S
V36     Er309    10.593   .     S
V36     Er306    10.593   .     S
V36     V33    9.743   1_545     S
V37     V38    9.159   .     S
V37     Ti93    10.143   .     S
V37     Er316    10.593   .     S
V37     Er310    10.593   .     S
V37     V40    9.743   1_655     S
V37     V43    9.743   .     S
V38     Ti96    10.143   .     S
V38     Er316    10.593   .     S
V38     Er310    10.593   .     S
V38     V42    9.743   1_565     S
V38     V48    9.743   .     S
V39     V40    9.159   .     S
V39     Ti269    10.143   .     S
V39     Er310    10.593   1_455     S
V39     Er298    10.593   1_455     S
V39     V41    9.743   1_465     S
V39     V45    9.743   1_455     S
V40     Ti272    10.143   .     S
V40     Er310    10.593   1_455     S
V40     Er298    10.593   1_455     S
V40     V37    9.743   1_455     S
V40     V43    9.743   1_455     S
V41     V42    9.159   .     S
V41     Ti204    10.143   .     S
V41     Er310    10.593   1_545     S
V41     Er289    10.593   1_545     S
V41     V39    9.743   1_645     S
V41     V45    9.743   1_545     S
V42     Ti201    10.143   .     S
V42     Er310    10.593   1_545     S
V42     Er289    10.593   1_545     S
V42     V38    9.743   1_545     S
V42     V48    9.743   1_545     S
V43     V44    9.159   .     S
V43     Ti181    10.143   .     S
V43     Er316    10.593   .     S
V43     Er298    10.593   .     S
V43     V40    9.743   1_655     S
V44     Ti184    10.143   .     S
V44     Er316    10.593   .     S
V44     Er298    10.593   .     S
V44     V47    9.743   .     S
V44     V46    9.743   .     S
V45     V46    9.159   .     S
V45     Ti101    10.143   .     S
V45     Er289    10.593   .     S
V45     Er298    10.593   .     S
V45     V39    9.743   1_655     S
V45     V41    9.743   1_565     S
V46     Ti104    10.143   .     S
V46     Er289    10.593   .     S
V46     Er298    10.593   .     S
V46     V47    9.743   .     S
V47     V48    9.159   .     S
V47     Ti264    10.143   .     S
V47     Er316    10.593   .     S
V47     Er289    10.593   .     S
V48     Ti261    10.143   .     S
V48     Er316    10.593   .     S
V48     Er289    10.593   .     S
V48     V42    9.743   1_565     S
V49     V50    9.159   .     S
V49     Ti129    10.143   .     S
V49     Er302    10.593   1_455     S
V49     Er312    10.593   1_455     S
V49     V52    9.743   1_456     S
V49     V57    9.743   1_455     S
V50     Ti132    10.143   .     S
V50     Er302    10.593   1_455     S
V50     Er312    10.593   1_455     S
V50     V54    9.743   1_455     S
V50     V55    9.743   1_455     S
V51     V52    9.159   .     S
V51     Ti188    10.143   .     S
V51     Er296    10.593   1_554     S
V51     Er312    10.593   1_554     S
V51     V56    9.743   1_554     S
V51     V59    9.743   1_554     S
V52     Ti185    10.143   .     S
V52     Er296    10.593   1_554     S
V52     Er312    10.593   1_554     S
V52     V49    9.743   1_654     S
V52     V57    9.743   1_554     S
V53     V54    9.159   .     S
V53     Ti196    10.143   .     S
V53     Er315    10.593   .     S
V53     Er302    10.593   .     S
V53     V58    9.743   .     S
V53     V60    9.743   .     S
V54     Ti193    10.143   .     S
V54     Er315    10.593   .     S
V54     Er302    10.593   .     S
V54     V50    9.743   1_655     S
V54     V55    9.743   .     S
V55     V56    9.159   .     S
V55     Ti97    10.143   .     S
V55     Er315    10.593   .     S
V55     Er312    10.593   .     S
V55     V50    9.743   1_655     S
V56     Ti100    10.143   .     S
V56     Er315    10.593   .     S
V56     Er312    10.593   .     S
V56     V51    9.743   1_556     S
V56     V59    9.743   .     S
V57     V58    9.159   .     S
V57     Ti85    10.143   .     S
V57     Er296    10.593   .     S
V57     Er302    10.593   .     S
V57     V52    9.743   1_556     S
V57     V49    9.743   1_655     S
V58     Ti88    10.143   .     S
V58     Er296    10.593   .     S
V58     Er302    10.593   .     S
V58     V60    9.743   .     S
V59     V60    9.159   .     S
V59     Ti112    10.143   .     S
V59     Er315    10.593   .     S
V59     Er296    10.593   .     S
V59     V51    9.743   1_556     S
V60     Ti109    10.143   .     S
V60     Er315    10.593   .     S
V60     Er296    10.593   .     S
V61     V62    9.159   .     S
V61     Ti260    10.143   .     S
V61     Er299    10.593   1_554     S
V61     Er314    10.593   1_554     S
V61     V63    9.743   1_564     S
V61     V69    9.743   1_554     S
V62     Ti257    10.143   .     S
V62     Er299    10.593   1_554     S
V62     Er314    10.593   1_554     S
V62     V65    9.743   1_554     S
V62     V67    9.743   1_554     S
V63     V64    9.159   .     S
V63     Ti121    10.143   .     S
V63     Er314    10.593   1_545     S
V63     Er304    10.593   1_545     S
V63     V61    9.743   1_546     S
V63     V69    9.743   1_545     S
V64     Ti124    10.143   .     S
V64     Er314    10.593   1_545     S
V64     Er304    10.593   1_545     S
V64     V66    9.743   1_545     S
V64     V71    9.743   1_545     S
V65     V66    9.159   .     S
V65     Ti89    10.143   .     S
V65     Er314    10.593   .     S
V65     Er317    10.593   .     S
V65     V62    9.743   1_556     S
V65     V67    9.743   .     S
V66     Ti92    10.143   .     S
V66     Er314    10.593   .     S
V66     Er317    10.593   .     S
V66     V64    9.743   1_565     S
V66     V71    9.743   .     S
V67     V68    9.159   .     S
V67     Ti128    10.143   .     S
V67     Er299    10.593   .     S
V67     Er317    10.593   .     S
V67     V62    9.743   1_556     S
V68     Ti125    10.143   .     S
V68     Er299    10.593   .     S
V68     Er317    10.593   .     S
V68     V70    9.743   .     S
V68     V72    9.743   .     S
V69     V70    9.159   .     S
V69     Ti105    10.143   .     S
V69     Er299    10.593   .     S
V69     Er304    10.593   .     S
V69     V63    9.743   1_565     S
V69     V61    9.743   1_556     S
V70     Ti108    10.143   .     S
V70     Er299    10.593   .     S
V70     Er304    10.593   .     S
V70     V72    9.743   .     S
V71     V72    9.159   .     S
V71     Ti273    10.143   .     S
V71     Er317    10.593   .     S
V71     Er304    10.593   .     S
V71     V64    9.743   1_565     S
V72     Ti276    10.143   .     S
V72     Er317    10.593   .     S
V72     Er304    10.593   .     S
V73     V74    9.159   .     S
V73     Ti113    10.143   .     S
V73     Er305    10.593   .     S
V73     Er294    10.593   .     S
V73     V82    9.743   .     S
V73     V84    9.743   .     S
V74     Ti116    10.143   .     S
V74     Er305    10.593   .     S
V74     Er294    10.593   .     S
V74     V78    9.743   .     S
V74     V76    9.743   .     S
V75     V76    9.159   .     S
V75     Ti256    10.143   .     S
V75     Er297    10.593   .     S
V75     Er305    10.593   .     S
V75     V83    9.743   .     S
V75     V79    9.743   .     S
V76     Ti253    10.143   .     S
V76     Er297    10.593   .     S
V76     Er305    10.593   .     S
V76     V78    9.743   .     S
V77     V78    9.159   .     S
V77     Ti192    10.143   .     S
V77     Er297    10.593   .     S
V77     Er294    10.593   .     S
V77     V80    9.743   .     S
V77     V81    9.743   .     S
V78     Ti189    10.143   .     S
V78     Er297    10.593   .     S
V78     Er294    10.593   .     S
V79     V80    9.159   .     S
V79     Ti120    10.143   .     S
V79     Er320    10.593   .     S
V79     Er297    10.593   .     S
V79     V83    9.743   .     S
V80     Ti117    10.143   .     S
V80     Er320    10.593   .     S
V80     Er297    10.593   .     S
V80     V81    9.743   .     S
V81     V82    9.159   .     S
V81     Ti268    10.143   .     S
V81     Er320    10.593   .     S
V81     Er294    10.593   .     S
V82     Ti265    10.143   .     S
V82     Er320    10.593   .     S
V82     Er294    10.593   .     S
V82     V84    9.743   .     S
V83     V84    9.159   .     S
V83     Ti197    10.143   .     S
V83     Er320    10.593   .     S
V83     Er305    10.593   .     S
V84     Ti200    10.143   .     S
V84     Er320    10.593   .     S
V84     Er305    10.593   .     S
Ti85     Ti140    10.49   1_556     S
Ti85     Ti136    10.49   1_655     S
Ti85     Ce86    9.494   .     S
Ti85     Ce139    9.908   1_556     S
Ti85     Ce135    9.908   1_655     S
Ce86     Ce87    9.3   .     S
Ce86     Ti140    9.908   1_556     S
Ce86     Ti136    9.908   1_655     S
Ce86     Ce102    9.659   1_546     S
Ce86     Ce106    9.659   1_645     S
Ce87     Ti88    9.494   .     S
Ce87     Ti161    9.908   .     S
Ce87     Ti168    9.908   .     S
Ce87     Ce95    9.659   1_545     S
Ce87     Ce91    9.659   1_545     S
Ti88     Ti161    10.49   .     S
Ti88     Ti168    10.49   .     S
Ti88     Ce163    9.908   .     S
Ti88     Ce167    9.908   .     S
Ti89     Ti208    10.49   .     S
Ti89     Ti209    10.49   1_556     S
Ti89     Ce90    9.494   .     S
Ti89     Ce207    9.908   .     S
Ti89     Ce210    9.908   1_556     S
Ce90     Ce91    9.3   .     S
Ce90     Ti208    9.908   .     S
Ce90     Ti209    9.908   1_556     S
Ce90     Ce103    9.659   1_556     S
Ce90     Ce98    9.659   .     S
Ce91     Ti92    9.494   .     S
Ce91     Ti168    9.908   1_565     S
Ce91     Ti160    9.908   .     S
Ce91     Ce95    9.659   .     S
Ce91     Ce87    9.659   1_565     S
Ti92     Ti168    10.49   1_565     S
Ti92     Ti160    10.49   .     S
Ti92     Ce167    9.908   1_565     S
Ti92     Ce158    9.908   .     S
Ti93     Ti244    10.49   .     S
Ti93     Ti236    10.49   1_655     S
Ti93     Ce94    9.494   .     S
Ti93     Ce243    9.908   .     S
Ti93     Ce235    9.908   1_655     S
Ce94     Ce95    9.3   .     S
Ce94     Ti244    9.908   .     S
Ce94     Ti236    9.908   1_655     S
Ce94     Ce107    9.659   1_655     S
Ce94     Ce99    9.659   .     S
Ce95     Ti96    9.494   .     S
Ce95     Ti161    9.908   1_565     S
Ce95     Ti160    9.908   .     S
Ce95     Ce87    9.659   1_565     S
Ti96     Ti161    10.49   1_565     S
Ti96     Ti160    10.49   .     S
Ti96     Ce163    9.908   1_565     S
Ti96     Ce158    9.908   .     S
Ti97     Ti237    10.49   1_655     S
Ti97     Ti244    10.49   .     S
Ti97     Ce99    9.494   .     S
Ti97     Ce239    9.908   1_655     S
Ti97     Ce243    9.908   .     S
Ce98     Ti100    9.494   .     S
Ce98     Ce99    9.3   .     S
Ce98     Ti208    9.908   .     S
Ce98     Ti216    9.908   1_556     S
Ce98     Ce103    9.659   1_556     S
Ce99     Ti237    9.908   1_655     S
Ce99     Ti244    9.908   .     S
Ce99     Ce107    9.659   1_655     S
Ti100     Ti208    10.49   .     S
Ti100     Ti216    10.49   1_556     S
Ti100     Ce207    9.908   .     S
Ti100     Ce214    9.908   1_556     S
Ti101     Ti140    10.49   1_565     S
Ti101     Ti144    10.49   1_655     S
Ti101     Ce102    9.494   .     S
Ti101     Ce139    9.908   1_565     S
Ti101     Ce142    9.908   1_655     S
Ce102     Ce103    9.3   .     S
Ce102     Ti140    9.908   1_565     S
Ce102     Ti144    9.908   1_655     S
Ce102     Ce106    9.659   1_654     S
Ce102     Ce86    9.659   1_564     S
Ce103     Ti104    9.494   .     S
Ce103     Ti216    9.908   .     S
Ce103     Ti209    9.908   .     S
Ce103     Ce98    9.659   1_554     S
Ce103     Ce90    9.659   1_554     S
Ti104     Ti216    10.49   .     S
Ti104     Ti209    10.49   .     S
Ti104     Ce214    9.908   .     S
Ti104     Ce210    9.908   .     S
Ti105     Ti136    10.49   1_565     S
Ti105     Ti144    10.49   1_556     S
Ti105     Ce106    9.494   .     S
Ti105     Ce135    9.908   1_565     S
Ti105     Ce142    9.908   1_556     S
Ce106     Ce107    9.3   .     S
Ce106     Ti136    9.908   1_565     S
Ce106     Ti144    9.908   1_556     S
Ce106     Ce102    9.659   1_456     S
Ce106     Ce86    9.659   1_465     S
Ce107     Ti108    9.494   .     S
Ce107     Ti237    9.908   .     S
Ce107     Ti236    9.908   .     S
Ce107     Ce94    9.659   1_455     S
Ce107     Ce99    9.659   1_455     S
Ti108     Ti237    10.49   .     S
Ti108     Ti236    10.49   .     S
Ti108     Ce239    9.908   .     S
Ti108     Ce235    9.908   .     S
Ti109     Ti165    10.49   .     S
Ti109     Ti169    10.49   .     S
Ti109     Ce111    9.494   .     S
Ti109     Ce166    9.908   .     S
Ti109     Ce170    9.908   .     S
Ce110     Ti112    9.494   .     S
Ce110     Ce111    9.3   .     S
Ce110     Ti220    9.908   1_556     S
Ce110     Ti205    9.908   .     S
Ce110     Ce114    9.659   1_556     S
Ce110     Ce126    9.659   .     S
Ce111     Ti165    9.908   .     S
Ce111     Ti169    9.908   .     S
Ce111     Ce123    9.659   .     S
Ce111     Ce119    9.659   .     S
Ti112     Ti220    10.49   1_556     S
Ti112     Ti205    10.49   .     S
Ti112     Ce219    9.908   1_556     S
Ti112     Ce206    9.908   .     S
Ti113     Ti220    10.49   .     S
Ti113     Ti225    10.49   .     S
Ti113     Ce114    9.494   .     S
Ti113     Ce219    9.908   .     S
Ti113     Ce227    9.908   .     S
Ce114     Ce115    9.3   .     S
Ce114     Ti220    9.908   .     S
Ce114     Ti225    9.908   .     S
Ce114     Ce110    9.659   1_554     S
Ce114     Ce126    9.659   1_554     S
Ce115     Ti116    9.494   .     S
Ce115     Ti145    9.908   .     S
Ce115     Ti152    9.908   .     S
Ce115     Ce122    9.659   1_554     S
Ce115     Ce130    9.659   1_554     S
Ti116     Ti145    10.49   .     S
Ti116     Ti152    10.49   .     S
Ti116     Ce147    9.908   .     S
Ti116     Ce151    9.908   .     S
Ti117     Ti248    10.49   .     S
Ti117     Ti229    10.49   .     S
Ti117     Ce118    9.494   .     S
Ti117     Ce247    9.908   .     S
Ti117     Ce230    9.908   .     S
Ce118     Ce119    9.3   .     S
Ce118     Ti248    9.908   .     S
Ce118     Ti229    9.908   .     S
Ce118     Ce127    9.659   .     S
Ce118     Ce131    9.659   .     S
Ce119     Ti120    9.494   .     S
Ce119     Ti173    9.908   .     S
Ce119     Ti169    9.908   .     S
Ce119     Ce123    9.659   .     S
Ti120     Ti173    10.49   .     S
Ti120     Ti169    10.49   .     S
Ti120     Ce174    9.908   .     S
Ti120     Ce170    9.908   .     S
Ti121     Ti133    10.49   .     S
Ti121     Ti145    10.49   1_556     S
Ti121     Ce122    9.494   .     S
Ti121     Ce134    9.908   .     S
Ti121     Ce147    9.908   1_556     S
Ce122     Ce123    9.3   .     S
Ce122     Ti133    9.908   .     S
Ce122     Ti145    9.908   1_556     S
Ce122     Ce115    9.659   1_556     S
Ce122     Ce130    9.659   .     S
Ce123     Ti124    9.494   .     S
Ce123     Ti165    9.908   .     S
Ce123     Ti173    9.908   .     S
Ti124     Ti165    10.49   .     S
Ti124     Ti173    10.49   .     S
Ti124     Ce166    9.908   .     S
Ti124     Ce174    9.908   .     S
Ti125     Ti240    10.49   .     S
Ti125     Ti229    10.49   .     S
Ti125     Ce127    9.494   .     S
Ti125     Ce238    9.908   .     S
Ti125     Ce230    9.908   .     S
Ce126     Ti128    9.494   .     S
Ce126     Ce127    9.3   .     S
Ce126     Ti225    9.908   1_556     S
Ce126     Ti205    9.908   .     S
Ce126     Ce114    9.659   1_556     S
Ce127     Ti240    9.908   .     S
Ce127     Ti229    9.908   .     S
Ce127     Ce131    9.659   .     S
Ti128     Ti225    10.49   1_556     S
Ti128     Ti205    10.49   .     S
Ti128     Ce227    9.908   1_556     S
Ti128     Ce206    9.908   .     S
Ti129     Ti133    10.49   .     S
Ti129     Ti152    10.49   1_556     S
Ti129     Ce130    9.494   .     S
Ti129     Ce134    9.908   .     S
Ti129     Ce151    9.908   1_556     S
Ce130     Ce131    9.3   .     S
Ce130     Ti133    9.908   .     S
Ce130     Ti152    9.908   1_556     S
Ce130     Ce115    9.659   1_556     S
Ce131     Ti132    9.494   .     S
Ce131     Ti240    9.908   .     S
Ce131     Ti248    9.908   .     S
Ti132     Ti240    10.49   .     S
Ti132     Ti248    10.49   .     S
Ti132     Ce238    9.908   .     S
Ti132     Ce247    9.908   .     S
Ti133     Ce134    9.494   .     S
Ce134     Ce135    9.3   .     S
Ce134     Ce147    9.659   1_556     S
Ce134     Ce151    9.659   1_556     S
Ce135     Ti136    9.494   .     S
Ce135     Ti85    9.908   1_455     S
Ce135     Ti105    9.908   1_545     S
Ce135     Ce142    9.659   1_546     S
Ce135     Ce139    9.659   1_456     S
Ti136     Ti85    10.49   1_455     S
Ti136     Ti105    10.49   1_545     S
Ti136     Ce86    9.908   1_455     S
Ti136     Ce106    9.908   1_545     S
Ti137     Ti204    10.49   .     S
Ti137     Ti185    10.49   .     S
Ti137     Ce138    9.494   .     S
Ti137     Ce202    9.908   .     S
Ti137     Ce186    9.908   .     S
Ce138     Ce139    9.3   .     S
Ce138     Ti204    9.908   .     S
Ce138     Ti185    9.908   .     S
Ce138     Ce150    9.659   1_655     S
Ce138     Ce154    9.659   1_655     S
Ce139     Ti140    9.494   .     S
Ce139     Ti101    9.908   1_545     S
Ce139     Ti85    9.908   1_554     S
Ce139     Ce135    9.659   1_654     S
Ce139     Ce142    9.659   1_645     S
Ti140     Ti101    10.49   1_545     S
Ti140     Ti85    10.49   1_554     S
Ti140     Ce102    9.908   1_545     S
Ti140     Ce86    9.908   1_554     S
Ti141     Ti260    10.49   .     S
Ti141     Ti269    10.49   .     S
Ti141     Ce143    9.494   .     S
Ti141     Ce258    9.908   .     S
Ti141     Ce270    9.908   .     S
Ce142     Ti144    9.494   .     S
Ce142     Ce143    9.3   .     S
Ce142     Ti101    9.908   1_455     S
Ce142     Ti105    9.908   1_554     S
Ce142     Ce135    9.659   1_564     S
Ce142     Ce139    9.659   1_465     S
Ce143     Ti260    9.908   .     S
Ce143     Ti269    9.908   .     S
Ce143     Ce155    9.659   1_565     S
Ce143     Ce146    9.659   1_565     S
Ti144     Ti101    10.49   1_455     S
Ti144     Ti105    10.49   1_554     S
Ti144     Ce102    9.908   1_455     S
Ti144     Ce106    9.908   1_554     S
Ti145     Ti121    10.49   1_554     S
Ti145     Ce147    9.494   .     S
Ti145     Ce122    9.908   1_554     S
Ce146     Ti148    9.494   .     S
Ce146     Ce147    9.3   .     S
Ce146     Ti253    9.908   .     S
Ce146     Ti260    9.908   1_545     S
Ce146     Ce155    9.659   .     S
Ce146     Ce143    9.659   1_545     S
Ce147     Ti121    9.908   1_554     S
Ce147     Ce134    9.659   1_554     S
Ce147     Ce151    9.659   .     S
Ti148     Ti253    10.49   .     S
Ti148     Ti260    10.49   1_545     S
Ti148     Ce255    9.908   .     S
Ti148     Ce258    9.908   1_545     S
Ti149     Ti189    10.49   .     S
Ti149     Ti185    10.49   1_455     S
Ti149     Ce150    9.494   .     S
Ti149     Ce190    9.908   .     S
Ti149     Ce186    9.908   1_455     S
Ce150     Ce151    9.3   .     S
Ce150     Ti189    9.908   .     S
Ce150     Ti185    9.908   1_455     S
Ce150     Ce154    9.659   .     S
Ce150     Ce138    9.659   1_455     S
Ce151     Ti152    9.494   .     S
Ce151     Ti129    9.908   1_554     S
Ce151     Ce134    9.659   1_554     S
Ti152     Ti129    10.49   1_554     S
Ti152     Ce130    9.908   1_554     S
Ti153     Ti253    10.49   .     S
Ti153     Ti269    10.49   1_545     S
Ti153     Ce155    9.494   .     S
Ti153     Ce255    9.908   .     S
Ti153     Ce270    9.908   1_545     S
Ce154     Ti156    9.494   .     S
Ce154     Ce155    9.3   .     S
Ce154     Ti189    9.908   .     S
Ce154     Ti204    9.908   1_455     S
Ce154     Ce138    9.659   1_455     S
Ce155     Ti253    9.908   .     S
Ce155     Ti269    9.908   1_545     S
Ce155     Ce143    9.659   1_545     S
Ti156     Ti189    10.49   .     S
Ti156     Ti204    10.49   1_455     S
Ti156     Ce190    9.908   .     S
Ti156     Ce202    9.908   1_455     S
Ti157     V284    10.143   .     S
Ti157     Ti261    10.49   .     S
Ti157     Ti273    10.49   .     S
Ti157     Ce159    9.494   .     S
Ti157     Ce262    9.908   .     S
Ti157     Ce274    9.908   .     S
Ce158     Ti160    9.494   .     S
Ce158     Ce159    9.3   .     S
Ce158     Ce167    9.659   1_565     S
Ce158     Ce163    9.659   1_565     S
Ce159     Ti261    9.908   .     S
Ce159     Ti273    9.908   .     S
Ce159     Ce175    9.659   1_565     S
Ce159     Ce179    9.659   1_565     S
Ti160     V283    10.143   .     S
Ti161     Ti96    10.49   1_545     S
Ti161     Ce163    9.494   .     S
Ti161     Ce95    9.908   1_545     S
Ce162     Ti164    9.494   .     S
Ce162     Ce163    9.3   .     S
Ce162     Ti196    9.908   .     S
Ce162     Ti201    9.908   .     S
Ce162     Ce171    9.659   .     S
Ce162     Ce178    9.659   .     S
Ce163     Ti96    9.908   1_545     S
Ce163     Ce158    9.659   1_545     S
Ce163     Ce167    9.659   .     S
Ti164     Ti196    10.49   .     S
Ti164     Ti201    10.49   .     S
Ti164     Ce195    9.908   .     S
Ti164     Ce203    9.908   .     S
Ti165     Ce166    9.494   .     S
Ce166     Ce167    9.3   .     S
Ce166     Ce170    9.659   .     S
Ce166     Ce174    9.659   .     S
Ce167     Ti168    9.494   .     S
Ce167     Ti92    9.908   1_545     S
Ce167     Ce158    9.659   1_545     S
Ti168     Ti92    10.49   1_545     S
Ti168     Ce91    9.908   1_545     S
Ti169     V288    10.143   .     S
Ti169     Ce170    9.494   .     S
Ce170     Ce171    9.3   .     S
Ce170     Ce174    9.659   .     S
Ce171     Ti172    9.494   .     S
Ce171     Ti196    9.908   .     S
Ce171     Ti197    9.908   .     S
Ce171     Ce178    9.659   .     S
Ti172     V287    10.143   .     S
Ti172     Ti196    10.49   .     S
Ti172     Ti197    10.49   .     S
Ti172     Ce195    9.908   .     S
Ti172     Ce199    9.908   .     S
Ti173     Ce174    9.494   .     S
Ce174     Ce175    9.3   .     S
Ce175     Ti176    9.494   .     S
Ce175     Ti273    9.908   1_545     S
Ce175     Ti256    9.908   .     S
Ce175     Ce159    9.659   1_545     S
Ce175     Ce179    9.659   .     S
Ti176     Ti273    10.49   1_545     S
Ti176     Ti256    10.49   .     S
Ti176     Ce274    9.908   1_545     S
Ti176     Ce254    9.908   .     S
Ti177     Ti197    10.49   .     S
Ti177     Ti201    10.49   .     S
Ti177     Ce178    9.494   .     S
Ti177     Ce199    9.908   .     S
Ti177     Ce203    9.908   .     S
Ce178     Ce179    9.3   .     S
Ce178     Ti197    9.908   .     S
Ce178     Ti201    9.908   .     S
Ce179     Ti180    9.494   .     S
Ce179     Ti256    9.908   .     S
Ce179     Ti261    9.908   1_545     S
Ce179     Ce159    9.659   1_545     S
Ti180     Ti256    10.49   .     S
Ti180     Ti261    10.49   1_545     S
Ti180     Ce254    9.908   .     S
Ti180     Ce262    9.908   1_545     S
Ti181     Ti249    10.49   1_655     S
Ti181     Ti241    10.49   .     S
Ti181     Ce182    9.494   .     S
Ti181     Ce251    9.908   1_655     S
Ti181     Ce242    9.908   .     S
Ce182     Ce183    9.3   .     S
Ce182     Ti249    9.908   1_655     S
Ce182     Ti241    9.908   .     S
Ce182     Ce191    9.659   1_655     S
Ce182     Ce194    9.659   .     S
Ce183     Ti184    9.494   .     S
Ce183     Ti221    9.908   .     S
Ce183     Ti213    9.908   .     S
Ce183     Ce187    9.659   .     S
Ce183     Ce198    9.659   .     S
Ti184     Ti221    10.49   .     S
Ti184     Ti213    10.49   .     S
Ti184     Ce223    9.908   .     S
Ti184     Ce215    9.908   .     S
Ti185     Ti149    10.49   1_655     S
Ti185     Ce186    9.494   .     S
Ti185     Ce150    9.908   1_655     S
Ce186     Ce187    9.3   .     S
Ce186     Ti149    9.908   1_655     S
Ce186     Ce202    9.659   .     S
Ce186     Ce190    9.659   1_655     S
Ce187     Ti188    9.494   .     S
Ce187     Ti217    9.908   .     S
Ce187     Ti213    9.908   .     S
Ce187     Ce198    9.659   .     S
Ti188     Ti217    10.49   .     S
Ti188     Ti213    10.49   .     S
Ti188     Ce218    9.908   .     S
Ti188     Ce215    9.908   .     S
Ti189     Ce190    9.494   .     S
Ce190     Ce191    9.3   .     S
Ce190     Ce202    9.659   1_455     S
Ce190     Ce186    9.659   1_455     S
Ce191     Ti192    9.494   .     S
Ce191     Ti245    9.908   .     S
Ce191     Ti249    9.908   .     S
Ce191     Ce182    9.659   1_455     S
Ce191     Ce194    9.659   1_455     S
Ti192     Ti245    10.49   .     S
Ti192     Ti249    10.49   .     S
Ti192     Ce246    9.908   .     S
Ti192     Ce251    9.908   .     S
Ti193     Ti245    10.49   1_655     S
Ti193     Ti241    10.49   .     S
Ti193     Ce194    9.494   .     S
Ti193     Ce246    9.908   1_655     S
Ti193     Ce242    9.908   .     S
Ce194     Ce195    9.3   .     S
Ce194     Ti245    9.908   1_655     S
Ce194     Ti241    9.908   .     S
Ce194     Ce191    9.659   1_655     S
Ce195     Ti196    9.494   .     S
Ce195     Ce199    9.659   .     S
Ce195     Ce203    9.659   .     S
Ti197     Ce199    9.494   .     S
Ce198     Ti200    9.494   .     S
Ce198     Ce199    9.3   .     S
Ce198     Ti221    9.908   .     S
Ce198     Ti217    9.908   .     S
Ce199     Ce203    9.659   .     S
Ti200     Ti221    10.49   .     S
Ti200     Ti217    10.49   .     S
Ti200     Ce223    9.908   .     S
Ti200     Ce218    9.908   .     S
Ti201     Ce203    9.494   .     S
Ce202     Ti204    9.494   .     S
Ce202     Ce203    9.3   .     S
Ce202     Ti156    9.908   1_655     S
Ce202     Ce190    9.659   1_655     S
Ti204     Ti156    10.49   1_655     S
Ti204     Ce154    9.908   1_655     S
Ti205     V282    10.143   .     S
Ti205     Ce206    9.494   .     S
Ce206     Ce207    9.3   .     S
Ce206     Ce227    9.659   1_556     S
Ce206     Ce219    9.659   1_556     S
Ce207     Ti208    9.494   .     S
Ce207     Ce210    9.659   1_556     S
Ce207     Ce214    9.659   1_556     S
Ti208     V281    10.143   .     S
Ti209     Ti89    10.49   1_554     S
Ti209     Ce210    9.494   .     S
Ti209     Ce90    9.908   1_554     S
Ce210     Ce211    9.3   .     S
Ce210     Ti89    9.908   1_554     S
Ce210     Ce207    9.659   1_554     S
Ce210     Ce214    9.659   .     S
Ce211     Ti212    9.494   .     S
Ce211     Ti264    9.908   .     S
Ce211     Ti257    9.908   .     S
Ce211     Ce222    9.659   .     S
Ce211     Ce226    9.659   .     S
Ti212     Ti264    10.49   .     S
Ti212     Ti257    10.49   .     S
Ti212     Ce263    9.908   .     S
Ti212     Ce259    9.908   .     S
Ti213     Ce215    9.494   .     S
Ce214     Ti216    9.494   .     S
Ce214     Ce215    9.3   .     S
Ce214     Ti100    9.908   1_554     S
Ce214     Ce207    9.659   1_554     S
Ce215     Ce223    9.659   .     S
Ce215     Ce218    9.659   .     S
Ti216     Ti100    10.49   1_554     S
Ti216     Ce98    9.908   1_554     S
Ti217     Ce218    9.494   .     S
Ce218     Ce219    9.3   .     S
Ce218     Ce223    9.659   .     S
Ce219     Ti220    9.494   .     S
Ce219     Ti112    9.908   1_554     S
Ce219     Ce206    9.659   1_554     S
Ce219     Ce227    9.659   .     S
Ti220     Ti112    10.49   1_554     S
Ti220     Ce110    9.908   1_554     S
Ti221     V278    10.143   .     S
Ti221     Ce223    9.494   .     S
Ce222     Ti224    9.494   .     S
Ce222     Ce223    9.3   .     S
Ce222     Ti264    9.908   .     S
Ce222     Ti265    9.908   .     S
Ce222     Ce226    9.659   .     S
Ti224     V277    10.143   .     S
Ti224     Ti264    10.49   .     S
Ti224     Ti265    10.49   .     S
Ti224     Ce263    9.908   .     S
Ti224     Ce266    9.908   .     S
Ti225     Ti128    10.49   1_554     S
Ti225     Ce227    9.494   .     S
Ti225     Ce126    9.908   1_554     S
Ce226     Ti228    9.494   .     S
Ce226     Ce227    9.3   .     S
Ce226     Ti257    9.908   .     S
Ce226     Ti265    9.908   .     S
Ce227     Ti128    9.908   1_554     S
Ce227     Ce206    9.659   1_554     S
Ti228     Ti257    10.49   .     S
Ti228     Ti265    10.49   .     S
Ti228     Ce259    9.908   .     S
Ti228     Ce266    9.908   .     S
Ti229     V280    10.143   .     S
Ti229     Ce230    9.494   .     S
Ce230     Ce231    9.3   .     S
Ce230     Ce238    9.659   .     S
Ce230     Ce247    9.659   .     S
Ce231     Ti232    9.494   .     S
Ce231     Ti268    9.908   .     S
Ce231     Ti276    9.908   .     S
Ce231     Ce250    9.659   .     S
Ce231     Ce234    9.659   .     S
Ti232     V279    10.143   .     S
Ti232     Ti268    10.49   .     S
Ti232     Ti276    10.49   .     S
Ti232     Ce267    9.908   .     S
Ti232     Ce275    9.908   .     S
Ti233     Ti272    10.49   .     S
Ti233     Ti276    10.49   .     S
Ti233     Ce234    9.494   .     S
Ti233     Ce271    9.908   .     S
Ti233     Ce275    9.908   .     S
Ce234     Ce235    9.3   .     S
Ce234     Ti272    9.908   .     S
Ce234     Ti276    9.908   .     S
Ce234     Ce250    9.659   .     S
Ce235     Ti236    9.494   .     S
Ce235     Ti93    9.908   1_455     S
Ce235     Ce243    9.659   1_455     S
Ce235     Ce239    9.659   .     S
Ti236     Ti93    10.49   1_455     S
Ti236     Ce94    9.908   1_455     S
Ti237     Ti97    10.49   1_455     S
Ti237     Ce239    9.494   .     S
Ti237     Ce99    9.908   1_455     S
Ce238     Ti240    9.494   .     S
Ce238     Ce239    9.3   .     S
Ce238     Ce247    9.659   .     S
Ce239     Ti97    9.908   1_455     S
Ce239     Ce243    9.659   1_455     S
Ti241     V285    10.143   .     S
Ti241     Ce242    9.494   .     S
Ce242     Ce243    9.3   .     S
Ce242     Ce246    9.659   1_655     S
Ce242     Ce251    9.659   1_655     S
Ce243     Ti244    9.494   .     S
Ce243     Ce235    9.659   1_655     S
Ce243     Ce239    9.659   1_655     S
Ti244     V286    10.143   .     S
Ti245     Ti193    10.49   1_455     S
Ti245     Ce246    9.494   .     S
Ti245     Ce194    9.908   1_455     S
Ce246     Ce247    9.3   .     S
Ce246     Ti193    9.908   1_455     S
Ce246     Ce242    9.659   1_455     S
Ce246     Ce251    9.659   .     S
Ce247     Ti248    9.494   .     S
Ti249     Ti181    10.49   1_455     S
Ti249     Ce251    9.494   .     S
Ti249     Ce182    9.908   1_455     S
Ce250     Ti252    9.494   .     S
Ce250     Ce251    9.3   .     S
Ce250     Ti272    9.908   .     S
Ce250     Ti268    9.908   .     S
Ce251     Ti181    9.908   1_455     S
Ce251     Ce242    9.659   1_455     S
Ti252     Ti272    10.49   .     S
Ti252     Ti268    10.49   .     S
Ti252     Ce271    9.908   .     S
Ti252     Ce267    9.908   .     S
Ti253     Ce255    9.494   .     S
Ce254     Ti256    9.494   .     S
Ce254     Ce255    9.3   .     S
Ce254     Ce274    9.659   1_545     S
Ce254     Ce262    9.659   1_545     S
Ce255     Ce270    9.659   1_545     S
Ce255     Ce258    9.659   1_545     S
Ti257     Ce259    9.494   .     S
Ce258     Ti260    9.494   .     S
Ce258     Ce259    9.3   .     S
Ce258     Ti148    9.908   1_565     S
Ce258     Ce270    9.659   .     S
Ce258     Ce255    9.659   1_565     S
Ce259     Ce266    9.659   .     S
Ce259     Ce263    9.659   .     S
Ti260     Ti148    10.49   1_565     S
Ti260     Ce146    9.908   1_565     S
Ti261     Ti180    10.49   1_565     S
Ti261     Ce262    9.494   .     S
Ti261     Ce179    9.908   1_565     S
Ce262     Ce263    9.3   .     S
Ce262     Ti180    9.908   1_565     S
Ce262     Ce274    9.659   .     S
Ce262     Ce254    9.659   1_565     S
Ce263     Ti264    9.494   .     S
Ce263     Ce266    9.659   .     S
Ti265     Ce266    9.494   .     S
Ce266     Ce267    9.3   .     S
Ce267     Ti268    9.494   .     S
Ce267     Ce275    9.659   .     S
Ce267     Ce271    9.659   .     S
Ti269     Ti153    10.49   1_565     S
Ti269     Ce270    9.494   .     S
Ti269     Ce155    9.908   1_565     S
Ce270     Ce271    9.3   .     S
Ce270     Ti153    9.908   1_565     S
Ce270     Ce255    9.659   1_565     S
Ce271     Ti272    9.494   .     S
Ce271     Ce275    9.659   .     S
Ti273     Ti176    10.49   1_565     S
Ti273     Ce274    9.494   .     S
Ti273     Ce175    9.908   1_565     S
Ce274     Ce275    9.3   .     S
Ce274     Ti176    9.908   1_565     S
Ce274     Ce254    9.659   1_565     S
Ce275     Ti276    9.494   .     S
V277     V278    9.159   .     S
V277     Er301    10.593   .     S
V277     Er295    10.593   .     S
V277     V284    9.743   .     S
V277     V279    9.743   .     S
V278     Er301    10.593   .     S
V278     Er295    10.593   .     S
V278     V287    9.743   .     S
V278     V285    9.743   .     S
V279     V280    9.159   .     S
V279     Er319    10.593   .     S
V279     Er295    10.593   .     S
V279     V284    9.743   .     S
V280     Er319    10.593   .     S
V280     Er295    10.593   .     S
V280     V288    9.743   .     S
V280     V282    9.743   .     S
V281     V282    9.159   .     S
V281     Er318    10.593   .     S
V281     Er319    10.593   .     S
V281     V286    9.743   .     S
V281     V283    9.743   .     S
V282     Er318    10.593   .     S
V282     Er319    10.593   .     S
V282     V288    9.743   .     S
V283     V284    9.159   .     S
V283     Er301    10.593   .     S
V283     Er319    10.593   .     S
V283     V286    9.743   .     S
V284     Er301    10.593   .     S
V284     Er319    10.593   .     S
V285     V286    9.159   .     S
V285     Er318    10.593   .     S
V285     Er301    10.593   .     S
V285     V287    9.743   .     S
V286     Er318    10.593   .     S
V286     Er301    10.593   .     S
V287     V288    9.159   .     S
V287     Er318    10.593   .     S
V287     Er295    10.593   .     S
V288     Er318    10.593   .     S
V288     Er295    10.593   .     S
Er289     Er292    11.427   1_565     S
Er289     V41    10.593   1_565     S
Er289     V42    10.593   1_565     S
Er290     Er296    11.427   1_554     S
Er290     V11    10.593   1_554     S
Er290     V12    10.593   1_554     S
Er291     Er302    11.427   1_455     S
Er291     V29    10.593   1_455     S
Er291     V30    10.593   1_455     S
Er292     Er289    11.427   1_545     S
Er292     V9    10.593   1_545     S
Er292     V10    10.593   1_545     S
Er293     Er299    11.427   1_554     S
Er293     V13    10.593   1_554     S
Er293     V14    10.593   1_554     S
Er294     Er300    11.427   .     S
Er295     Er320    11.427   .     S
Er296     Er290    11.427   1_556     S
Er296     V52    10.593   1_556     S
Er296     V51    10.593   1_556     S
Er297     Er306    11.427   .     S
Er298     Er303    11.427   1_655     S
Er298     V39    10.593   1_655     S
Er298     V40    10.593   1_655     S
Er299     Er293    11.427   1_556     S
Er299     V61    10.593   1_556     S
Er299     V62    10.593   1_556     S
Er301     Er316    11.427   .     S
Er302     Er291    11.427   1_655     S
Er302     V50    10.593   1_655     S
Er302     V49    10.593   1_655     S
Er303     Er298    11.427   1_455     S
Er303     V20    10.593   1_455     S
Er303     V19    10.593   1_455     S
Er304     Er308    11.427   1_565     S
Er304     V64    10.593   1_565     S
Er304     V63    10.593   1_565     S
Er305     Er307    11.427   .     S
Er308     Er304    11.427   1_545     S
Er308     V34    10.593   1_545     S
Er308     V33    10.593   1_545     S
Er309     Er310    11.427   1_445     S
Er309     V33    10.593   1_545     S
Er309     V34    10.593   1_545     S
Er309     V29    10.593   1_455     S
Er309     V30    10.593   1_455     S
Er310     Er309    11.427   1_665     S
Er310     V41    10.593   1_565     S
Er310     V42    10.593   1_565     S
Er310     V39    10.593   1_655     S
Er310     V40    10.593   1_655     S
Er311     Er314    11.427   1_544     S
Er311     V12    10.593   1_554     S
Er311     V11    10.593   1_554     S
Er311     V10    10.593   1_545     S
Er311     V9    10.593   1_545     S
Er312     Er313    11.427   1_656     S
Er312     V51    10.593   1_556     S
Er312     V52    10.593   1_556     S
Er312     V49    10.593   1_655     S
Er312     V50    10.593   1_655     S
Er313     Er312    11.427   1_454     S
Er313     V19    10.593   1_455     S
Er313     V20    10.593   1_455     S
Er313     V13    10.593   1_554     S
Er313     V14    10.593   1_554     S
Er314     Er311    11.427   1_566     S
Er314     V61    10.593   1_556     S
Er314     V62    10.593   1_556     S
Er314     V64    10.593   1_565     S
Er314     V63    10.593   1_565     S
Er315     Er318    11.427   .     S
Er317     Er319    11.427   .     S
