data_jan
_audit_creation_date              2020-02-04
_audit_creation_method            'Pymatgen'
_symmetry_space_group_name_H-M    'P1'
_symmetry_Int_Tables_number       1
loop_
_symmetry_equiv_pos_as_xyz
  x,y,z
_cell_length_a                    97.1823
_cell_length_b                    97.1823
_cell_length_c                    97.1823
_cell_angle_alpha                 90.0
_cell_angle_beta                 90.0
_cell_angle_gamma                 90.0
loop_
_atom_site_label
_atom_site_type_symbol
_atom_site_fract_x
_atom_site_fract_y
_atom_site_fract_z
V1     V     0.5769   0.1636   0.1121
V2     V     0.6731   0.1379   0.0864
V3     V     0.3269   0.3621   0.0864
V4     V     0.4231   0.3364   0.1121
V5     V     0.1731   0.3621   0.9136
V6     V     0.0769   0.3364   0.8879
V7     V     0.9231   0.1636   0.8879
V8     V     0.8269   0.1379   0.9136
Ti9     Ti     0.2929   0.2842   0.0284
Er10     Er     0.3779   0.3352   0.0011
Ti11     Ti     0.4571   0.2785   0.0341
Er12     Er     0.3721   0.2512   0.0852
Ti13     Ti     0.2071   0.2841   0.9716
Er14     Er     0.1221   0.3352   0.9988
Ti15     Ti     0.0429   0.2785   0.9658
Er16     Er     0.1279   0.2512   0.9148
Ti17     Ti     0.7929   0.2158   0.9716
Er18     Er     0.8779   0.1648   0.9988
Ti19     Ti     0.9571   0.2216   0.9658
Er20     Er     0.8721   0.2488   0.9148
Ti21     Ti     0.5429   0.2216   0.0341
Er22     Er     0.6279   0.2488   0.0852
Ti23     Ti     0.7071   0.2158   0.0285
Er24     Er     0.6221   0.1648   0.0011
V25     V     0.3621   0.0864   0.3269
V26     V     0.3364   0.1121   0.4231
V27     V     0.1636   0.1121   0.5769
V28     V     0.1379   0.0864   0.6731
V29     V     0.1636   0.8879   0.9231
V30     V     0.1379   0.9136   0.8269
V31     V     0.3621   0.9136   0.1731
V32     V     0.3364   0.8879   0.0769
Ti33     Ti     0.2784   0.0341   0.4571
Er34     Er     0.2512   0.0852   0.3721
Ti35     Ti     0.2842   0.0284   0.2929
Er36     Er     0.3352   0.0011   0.3779
Ti37     Ti     0.2158   0.0284   0.7071
Er38     Er     0.1648   0.0011   0.6221
Ti39     Ti     0.2216   0.0341   0.5429
Er40     Er     0.2488   0.0852   0.6279
Ti41     Ti     0.2158   0.9716   0.7929
Er42     Er     0.1648   0.9988   0.8779
Ti43     Ti     0.2216   0.9658   0.9571
Er44     Er     0.2488   0.9148   0.8721
Ti45     Ti     0.2842   0.9716   0.2071
Er46     Er     0.3352   0.9988   0.1221
Ti47     Ti     0.2784   0.9658   0.0429
Er48     Er     0.2512   0.9148   0.1279
V49     V     0.0769   0.6636   0.6121
V50     V     0.1731   0.6379   0.5864
V51     V     0.4231   0.6636   0.3879
V52     V     0.3269   0.6379   0.4136
V53     V     0.5769   0.8364   0.3879
V54     V     0.6731   0.8621   0.4136
V55     V     0.9231   0.8364   0.6121
V56     V     0.8269   0.8621   0.5864
Ti57     Ti     0.4571   0.7216   0.4658
Er58     Er     0.3721   0.7488   0.4148
Ti59     Ti     0.2929   0.7158   0.4716
Er60     Er     0.3779   0.6648   0.4988
Ti61     Ti     0.0429   0.7216   0.5341
Er62     Er     0.1279   0.7488   0.5852
Ti63     Ti     0.2071   0.7158   0.5284
Er64     Er     0.1221   0.6648   0.5012
Ti65     Ti     0.9571   0.7784   0.5342
Er66     Er     0.8721   0.7512   0.5852
Ti67     Ti     0.7929   0.7842   0.5284
Er68     Er     0.8779   0.8352   0.5012
Ti69     Ti     0.5429   0.7784   0.4658
Er70     Er     0.6279   0.7512   0.4148
Ti71     Ti     0.7071   0.7842   0.4716
Er72     Er     0.6221   0.8352   0.4988
V73     V     0.8621   0.9136   0.3269
V74     V     0.8364   0.8879   0.4231
V75     V     0.6379   0.9136   0.6731
V76     V     0.6636   0.8879   0.5769
V77     V     0.6636   0.1121   0.9231
V78     V     0.6379   0.0864   0.8269
V79     V     0.8364   0.1121   0.0769
V80     V     0.8621   0.0864   0.1731
Ti81     Ti     0.7784   0.0342   0.0429
Er82     Er     0.7512   0.0852   0.1279
Ti83     Ti     0.7842   0.0284   0.2071
Er84     Er     0.8352   0.0012   0.1221
Ti85     Ti     0.7216   0.0342   0.9571
Er86     Er     0.7488   0.0852   0.8721
Ti87     Ti     0.7158   0.0284   0.7929
Er88     Er     0.6648   0.0012   0.8779
Ti89     Ti     0.7784   0.9659   0.4571
Er90     Er     0.7512   0.9148   0.3721
Ti91     Ti     0.7842   0.9716   0.2929
Er92     Er     0.8352   0.9988   0.3779
Ti93     Ti     0.7158   0.9716   0.7071
Er94     Er     0.6648   0.9988   0.6221
Ti95     Ti     0.7216   0.9659   0.5429
Er96     Er     0.7488   0.9148   0.6279
V97     V     0.0864   0.3269   0.3621
V98     V     0.1121   0.4231   0.3364
V99     V     0.8879   0.0769   0.3364
V100     V     0.9136   0.1731   0.3621
V101     V     0.0864   0.6731   0.1379
V102     V     0.1121   0.5769   0.1636
V103     V     0.8879   0.9231   0.1636
V104     V     0.9136   0.8269   0.1379
Ti105     Ti     0.9716   0.7929   0.2158
Er106     Er     0.9988   0.8779   0.1648
Ti107     Ti     0.9658   0.9571   0.2216
Er108     Er     0.9148   0.8721   0.2488
Ti109     Ti     0.0284   0.7071   0.2158
Er110     Er     0.0011   0.6221   0.1648
Ti111     Ti     0.0341   0.5429   0.2216
Er112     Er     0.0852   0.6279   0.2488
Ti113     Ti     0.0341   0.4571   0.2784
Er114     Er     0.0852   0.3721   0.2512
Ti115     Ti     0.0284   0.2929   0.2842
Er116     Er     0.0011   0.3779   0.3352
Ti117     Ti     0.9716   0.2071   0.2841
Er118     Er     0.9988   0.1221   0.3352
Ti119     Ti     0.9658   0.0429   0.2785
Er120     Er     0.9148   0.1279   0.2512
V121     V     0.3364   0.3879   0.9231
V122     V     0.3621   0.4136   0.8269
V123     V     0.1636   0.6121   0.4231
V124     V     0.1379   0.5864   0.3269
V125     V     0.1636   0.3879   0.0769
V126     V     0.1379   0.4136   0.1731
V127     V     0.3621   0.5864   0.6731
V128     V     0.3364   0.6121   0.5769
Ti129     Ti     0.2216   0.4658   0.0429
Er130     Er     0.2488   0.4148   0.1279
Ti131     Ti     0.2158   0.4716   0.2071
Er132     Er     0.1648   0.4988   0.1221
Ti133     Ti     0.2158   0.5284   0.2929
Er134     Er     0.1648   0.5012   0.3779
Ti135     Ti     0.2216   0.5342   0.4571
Er136     Er     0.2488   0.5852   0.3721
Ti137     Ti     0.2842   0.5284   0.7071
Er138     Er     0.3352   0.5012   0.6221
Ti139     Ti     0.2784   0.5342   0.5429
Er140     Er     0.2512   0.5852   0.6279
Ti141     Ti     0.2842   0.4716   0.7929
Er142     Er     0.3352   0.4988   0.8779
Ti143     Ti     0.2784   0.4658   0.9571
Er144     Er     0.2512   0.4148   0.8721
V145     V     0.6731   0.3621   0.5864
V146     V     0.5769   0.3364   0.6121
V147     V     0.9231   0.3364   0.3879
V148     V     0.8269   0.3621   0.4136
V149     V     0.0769   0.1636   0.3879
V150     V     0.1731   0.1379   0.4136
V151     V     0.3269   0.1379   0.5864
V152     V     0.4231   0.1636   0.6121
Ti153     Ti     0.4571   0.2216   0.5342
Er154     Er     0.3721   0.2488   0.5852
Ti155     Ti     0.2929   0.2158   0.5284
Er156     Er     0.3779   0.1648   0.5012
Ti157     Ti     0.7071   0.2842   0.5284
Er158     Er     0.6221   0.3352   0.5012
Ti159     Ti     0.5429   0.2784   0.5342
Er160     Er     0.6279   0.2512   0.5852
Ti161     Ti     0.0429   0.2216   0.4658
Er162     Er     0.1279   0.2488   0.4148
Ti163     Ti     0.2071   0.2158   0.4716
Er164     Er     0.1221   0.1648   0.4988
Ti165     Ti     0.7929   0.2842   0.4716
Er166     Er     0.8779   0.3352   0.4988
Ti167     Ti     0.9571   0.2784   0.4658
Er168     Er     0.8721   0.2512   0.4148
V169     V     0.9231   0.6636   0.1121
V170     V     0.8269   0.6379   0.0864
V171     V     0.6731   0.6379   0.9136
V172     V     0.5769   0.6636   0.8879
V173     V     0.0769   0.8364   0.1121
V174     V     0.1731   0.8621   0.0864
V175     V     0.3269   0.8621   0.9136
V176     V     0.4231   0.8364   0.8879
Ti177     Ti     0.0429   0.7784   0.0342
Er178     Er     0.1279   0.7512   0.0852
Ti179     Ti     0.2071   0.7842   0.0284
Er180     Er     0.1221   0.8352   0.0012
Ti181     Ti     0.9571   0.7216   0.0342
Er182     Er     0.8721   0.7488   0.0852
Ti183     Ti     0.7929   0.7158   0.0284
Er184     Er     0.8779   0.6648   0.0012
Ti185     Ti     0.4571   0.7784   0.9659
Er186     Er     0.3721   0.7512   0.9148
Ti187     Ti     0.2929   0.7842   0.9716
Er188     Er     0.3779   0.8352   0.9988
Ti189     Ti     0.7071   0.7158   0.9716
Er190     Er     0.6221   0.6648   0.9988
Ti191     Ti     0.5429   0.7216   0.9658
Er192     Er     0.6279   0.7488   0.9148
V193     V     0.3879   0.4231   0.6636
V194     V     0.4136   0.3269   0.6379
V195     V     0.4136   0.6731   0.8621
V196     V     0.3879   0.5769   0.8364
V197     V     0.6121   0.9231   0.8364
V198     V     0.5864   0.8269   0.8621
V199     V     0.6121   0.0769   0.6636
V200     V     0.5864   0.1731   0.6379
Ti201     Ti     0.4658   0.4571   0.7216
Er202     Er     0.4148   0.3721   0.7488
Ti203     Ti     0.4716   0.2929   0.7158
Er204     Er     0.4988   0.3779   0.6648
Ti205     Ti     0.5341   0.0429   0.7216
Er206     Er     0.5852   0.1279   0.7488
Ti207     Ti     0.5284   0.2071   0.7158
Er208     Er     0.5012   0.1221   0.6648
Ti209     Ti     0.5341   0.9571   0.7784
Er210     Er     0.5852   0.8721   0.7512
Ti211     Ti     0.5284   0.7929   0.7842
Er212     Er     0.5012   0.8779   0.8352
Ti213     Ti     0.4658   0.5429   0.7784
Er214     Er     0.4148   0.6279   0.7512
Ti215     Ti     0.4716   0.7071   0.7842
Er216     Er     0.4988   0.6221   0.8352
V217     V     0.5864   0.6731   0.3621
V218     V     0.6121   0.5769   0.3364
V219     V     0.3879   0.9231   0.3364
V220     V     0.4136   0.8269   0.3621
V221     V     0.5864   0.3269   0.1379
V222     V     0.6121   0.4231   0.1636
V223     V     0.3879   0.0769   0.1636
V224     V     0.4136   0.1731   0.1379
Ti225     Ti     0.4658   0.0429   0.2216
Er226     Er     0.4148   0.1279   0.2488
Ti227     Ti     0.4716   0.2071   0.2158
Er228     Er     0.4988   0.1221   0.1648
Ti229     Ti     0.4716   0.7929   0.2842
Er230     Er     0.4988   0.8779   0.3352
Ti231     Ti     0.4658   0.9571   0.2784
Er232     Er     0.4148   0.8721   0.2512
Ti233     Ti     0.5342   0.4571   0.2216
Er234     Er     0.5852   0.3721   0.2488
Ti235     Ti     0.5284   0.2929   0.2158
Er236     Er     0.5012   0.3779   0.1648
Ti237     Ti     0.5284   0.7071   0.2842
Er238     Er     0.5012   0.6221   0.3352
Ti239     Ti     0.5342   0.5429   0.2784
Er240     Er     0.5852   0.6279   0.2512
V241     V     0.6636   0.3879   0.4231
V242     V     0.6379   0.4136   0.3269
V243     V     0.8364   0.3879   0.5769
V244     V     0.8621   0.4136   0.6731
V245     V     0.8364   0.6121   0.9231
V246     V     0.8621   0.5864   0.8269
V247     V     0.6636   0.6121   0.0769
V248     V     0.6379   0.5864   0.1731
Ti249     Ti     0.7216   0.4658   0.4571
Er250     Er     0.7488   0.4148   0.3721
Ti251     Ti     0.7158   0.4716   0.2929
Er252     Er     0.6648   0.4988   0.3779
Ti253     Ti     0.7216   0.5341   0.0429
Er254     Er     0.7488   0.5852   0.1279
Ti255     Ti     0.7158   0.5284   0.2071
Er256     Er     0.6648   0.5012   0.1221
Ti257     Ti     0.7784   0.5341   0.9571
Er258     Er     0.7512   0.5852   0.8721
Ti259     Ti     0.7842   0.5284   0.7929
Er260     Er     0.8352   0.5012   0.8779
Ti261     Ti     0.7784   0.4658   0.5429
Er262     Er     0.7512   0.4148   0.6279
Ti263     Ti     0.7842   0.4716   0.7071
Er264     Er     0.8352   0.4988   0.6221
V265     V     0.9136   0.3269   0.8621
V266     V     0.8879   0.4231   0.8364
V267     V     0.9136   0.6731   0.6379
V268     V     0.8879   0.5769   0.6636
V269     V     0.1121   0.9231   0.6636
V270     V     0.0864   0.8269   0.6379
V271     V     0.1121   0.0769   0.8364
V272     V     0.0864   0.1731   0.8621
Ti273     Ti     0.0342   0.0429   0.7784
Er274     Er     0.0852   0.1279   0.7512
Ti275     Ti     0.0284   0.2071   0.7842
Er276     Er     0.0012   0.1221   0.8352
Ti277     Ti     0.0342   0.9571   0.7216
Er278     Er     0.0852   0.8721   0.7488
Ti279     Ti     0.0284   0.7929   0.7158
Er280     Er     0.0012   0.8779   0.6648
Ti281     Ti     0.9659   0.4571   0.7784
Er282     Er     0.9148   0.3721   0.7512
Ti283     Ti     0.9716   0.2929   0.7842
Er284     Er     0.9988   0.3779   0.8352
Ti285     Ti     0.9716   0.7071   0.7158
Er286     Er     0.9988   0.6221   0.6648
Ti287     Ti     0.9659   0.5429   0.7216
Er288     Er     0.9148   0.6279   0.7488
loop_
_geom_bond_atom_site_label_1
_geom_bond_atom_site_label_2
_geom_bond_distance
_geom_bond_site_symmetry_2
_ccdc_geom_bond_type
V1     V2    10.0   .     S
V1     Ti21    10.0   .     S
V1     Er22    10.0   .     S
V1     Er228    10.0   .     S
V2     Ti23    10.0   .     S
V2     Er24    10.0   .     S
V2     Er82    10.0   .     S
V3     V4    10.0   .     S
V3     Ti9    10.0   .     S
V3     Er10    10.0   .     S
V3     Er130    10.0   .     S
V4     Ti11    10.0   .     S
V4     Er12    10.0   .     S
V4     Er236    10.0   .     S
V5     V6    10.0   .     S
V5     Ti13    10.0   .     S
V5     Er14    10.0   .     S
V5     Er144    10.0   .     S
V6     Ti15    10.0   .     S
V6     Er16    10.0   .     S
V6     Er284    10.0   1_455     S
V7     V8    10.0   .     S
V7     Ti19    10.0   .     S
V7     Er20    10.0   .     S
V7     Er276    10.0   1_655     S
V8     Ti17    10.0   .     S
V8     Er18    10.0   .     S
V8     Er86    10.0   .     S
Ti9     Er10    10.0   .     S
Ti9     Er12    9.999   .     S
Ti9     Ti13    10.0   1_554     S
Er10     Ti11    9.999   .     S
Er10     V121    10.0   1_554     S
Ti11     Er12    10.0   .     S
Ti11     Ti21    10.0   .     S
Er12     V224    10.0   .     S
Ti13     Er14    10.0   .     S
Ti13     Er16    9.999   .     S
Ti13     Ti9    10.0   1_556     S
Er14     Ti15    9.999   .     S
Er14     V125    10.0   1_556     S
Ti15     Er16    10.0   .     S
Ti15     Ti19    10.0   1_455     S
Er16     V272    10.0   .     S
Ti17     Er18    10.0   .     S
Ti17     Er20    9.999   .     S
Ti17     Ti23    10.0   1_556     S
Er18     Ti19    9.999   .     S
Er18     V79    10.0   1_556     S
Ti19     Er20    10.0   .     S
Ti19     Ti15    10.0   1_655     S
Er20     V265    10.0   .     S
Ti21     Er22    10.0   .     S
Ti21     Er24    9.999   .     S
Er22     Ti23    9.999   .     S
Er22     V221    10.0   .     S
Ti23     Ti17    10.0   1_554     S
Ti23     Er24    10.0   .     S
Er24     V77    10.0   1_554     S
V25     V26    10.0   .     S
V25     Ti35    10.0   .     S
V25     Er36    10.0   .     S
V25     Er226    10.0   .     S
V26     Ti33    10.0   .     S
V26     Er34    10.0   .     S
V26     Er156    10.0   .     S
V27     V28    10.0   .     S
V27     Ti39    10.0   .     S
V27     Er40    10.0   .     S
V27     Er164    10.0   .     S
V28     Ti37    10.0   .     S
V28     Er38    10.0   .     S
V28     Er274    10.0   .     S
V29     V30    10.0   .     S
V29     Ti43    10.0   .     S
V29     Er44    10.0   .     S
V29     Er180    10.0   1_556     S
V30     Ti41    10.0   .     S
V30     Er42    10.0   .     S
V30     Er278    10.0   .     S
V31     V32    10.0   .     S
V31     Ti45    10.0   .     S
V31     Er46    10.0   .     S
V31     Er232    10.0   .     S
V32     Ti47    10.0   .     S
V32     Er48    10.0   .     S
V32     Er188    10.0   1_554     S
Ti33     Er34    10.0   .     S
Ti33     Er36    9.999   .     S
Ti33     Ti39    10.0   .     S
Er34     Ti35    9.999   .     S
Er34     V150    10.0   .     S
Ti35     Er36    10.0   .     S
Ti35     Ti45    10.0   1_545     S
Er36     V219    10.0   1_545     S
Ti37     Er38    10.0   .     S
Ti37     Er40    9.999   .     S
Ti37     Ti41    10.0   1_545     S
Er38     Ti39    9.999   .     S
Er38     V269    10.0   1_545     S
Ti39     Er40    10.0   .     S
Er40     V151    10.0   .     S
Ti41     Er42    10.0   .     S
Ti41     Er44    9.999   .     S
Ti41     Ti37    10.0   1_565     S
Er42     Ti43    9.999   .     S
Er42     V271    10.0   1_565     S
Ti43     Er44    10.0   .     S
Ti43     Ti47    10.0   1_556     S
Er44     V175    10.0   .     S
Ti45     Er46    10.0   .     S
Ti45     Er48    9.999   .     S
Ti45     Ti35    10.0   1_565     S
Er46     Ti47    9.999   .     S
Er46     V223    10.0   1_565     S
Ti47     Er48    10.0   .     S
Ti47     Ti43    10.0   1_554     S
Er48     V174    10.0   .     S
V49     V50    10.0   .     S
V49     Ti61    10.0   .     S
V49     Er62    10.0   .     S
V49     Er286    10.0   1_455     S
V50     Ti63    10.0   .     S
V50     Er64    10.0   .     S
V50     Er140    10.0   .     S
V51     V52    10.0   .     S
V51     Ti57    10.0   .     S
V51     Er58    10.0   .     S
V51     Er238    10.0   .     S
V52     Ti59    10.0   .     S
V52     Er60    10.0   .     S
V52     Er136    10.0   .     S
V53     V54    10.0   .     S
V53     Ti69    10.0   .     S
V53     Er70    10.0   .     S
V53     Er230    10.0   .     S
V54     Ti71    10.0   .     S
V54     Er72    10.0   .     S
V54     Er90    10.0   .     S
V55     V56    10.0   .     S
V55     Ti65    10.0   .     S
V55     Er66    10.0   .     S
V55     Er280    10.0   1_655     S
V56     Ti67    10.0   .     S
V56     Er68    10.0   .     S
V56     Er96    10.0   .     S
Ti57     Er58    10.0   .     S
Ti57     Er60    9.999   .     S
Ti57     Ti69    10.0   .     S
Er58     Ti59    9.999   .     S
Er58     V220    10.0   .     S
Ti59     Er60    10.0   .     S
Ti59     Ti63    10.0   .     S
Er60     V128    10.0   .     S
Ti61     Er62    10.0   .     S
Ti61     Er64    9.999   .     S
Ti61     Ti65    10.0   1_455     S
Er62     Ti63    9.999   .     S
Er62     V270    10.0   .     S
Ti63     Er64    10.0   .     S
Er64     V123    10.0   .     S
Ti65     Er66    10.0   .     S
Ti65     Er68    9.999   .     S
Ti65     Ti61    10.0   1_655     S
Er66     Ti67    9.999   .     S
Er66     V267    10.0   .     S
Ti67     Er68    10.0   .     S
Ti67     Ti71    10.0   .     S
Er68     V74    10.0   .     S
Ti69     Er70    10.0   .     S
Ti69     Er72    9.999   .     S
Er70     Ti71    9.999   .     S
Er70     V217    10.0   .     S
Ti71     Er72    10.0   .     S
Er72     V76    10.0   .     S
V73     V74    10.0   .     S
V73     Ti91    10.0   .     S
V73     Er92    10.0   .     S
V73     Er108    10.0   .     S
V74     Ti89    10.0   .     S
V74     Er90    10.0   .     S
V75     V76    10.0   .     S
V75     Ti93    10.0   .     S
V75     Er94    10.0   .     S
V75     Er210    10.0   .     S
V76     Ti95    10.0   .     S
V76     Er96    10.0   .     S
V77     Er24    10.0   1_556     S
V77     V78    10.0   .     S
V77     Ti85    10.0   .     S
V77     Er86    10.0   .     S
V78     Ti87    10.0   .     S
V78     Er88    10.0   .     S
V78     Er206    10.0   .     S
V79     Er18    10.0   1_554     S
V79     V80    10.0   .     S
V79     Ti81    10.0   .     S
V79     Er82    10.0   .     S
V80     Ti83    10.0   .     S
V80     Er84    10.0   .     S
V80     Er120    10.0   .     S
Ti81     Er82    10.0   .     S
Ti81     Er84    9.999   .     S
Ti81     Ti85    10.0   1_554     S
Er82     Ti83    9.999   .     S
Ti83     Er84    10.0   .     S
Ti83     Ti91    10.0   1_545     S
Er84     V103    10.0   1_545     S
Ti85     Er86    10.0   .     S
Ti85     Er88    9.999   .     S
Ti85     Ti81    10.0   1_556     S
Er86     Ti87    9.999   .     S
Ti87     Er88    10.0   .     S
Ti87     Ti93    10.0   1_545     S
Er88     V197    10.0   1_545     S
Ti89     Er90    10.0   .     S
Ti89     Er92    9.999   .     S
Ti89     Ti95    10.0   .     S
Er90     Ti91    9.999   .     S
Ti91     Er92    10.0   .     S
Ti91     Ti83    10.0   1_565     S
Er92     V99    10.0   1_565     S
Ti93     Er94    10.0   .     S
Ti93     Er96    9.999   .     S
Ti93     Ti87    10.0   1_565     S
Er94     Ti95    9.999   .     S
Er94     V199    10.0   1_565     S
Ti95     Er96    10.0   .     S
V97     V98    10.0   .     S
V97     Ti115    10.0   .     S
V97     Er116    10.0   .     S
V97     Er162    10.0   .     S
V98     Ti113    10.0   .     S
V98     Er114    10.0   .     S
V98     Er134    10.0   .     S
V99     Er92    10.0   1_545     S
V99     V100    10.0   .     S
V99     Ti119    10.0   .     S
V99     Er120    10.0   .     S
V100     Ti117    10.0   .     S
V100     Er118    10.0   .     S
V100     Er168    10.0   .     S
V101     V102    10.0   .     S
V101     Ti109    10.0   .     S
V101     Er110    10.0   .     S
V101     Er178    10.0   .     S
V102     Ti111    10.0   .     S
V102     Er112    10.0   .     S
V102     Er132    10.0   .     S
V103     Er84    10.0   1_565     S
V103     V104    10.0   .     S
V103     Ti107    10.0   .     S
V103     Er108    10.0   .     S
V104     Ti105    10.0   .     S
V104     Er106    10.0   .     S
V104     Er182    10.0   .     S
Ti105     Er106    10.0   .     S
Ti105     Er108    9.999   .     S
Ti105     Ti109    10.0   1_655     S
Er106     Ti107    9.999   .     S
Er106     V173    10.0   1_655     S
Ti107     Er108    10.0   .     S
Ti107     Ti119    10.0   1_565     S
Ti109     Ti105    10.0   1_455     S
Ti109     Er110    10.0   .     S
Ti109     Er112    9.999   .     S
Er110     Ti111    9.999   .     S
Er110     V169    10.0   1_455     S
Ti111     Er112    10.0   .     S
Ti111     Ti113    10.0   .     S
Er112     V124    10.0   .     S
Ti113     Er114    10.0   .     S
Ti113     Er116    9.999   .     S
Er114     Ti115    9.999   .     S
Er114     V126    10.0   .     S
Ti115     Er116    10.0   .     S
Ti115     Ti117    10.0   1_455     S
Er116     V147    10.0   1_455     S
Ti117     Er118    10.0   .     S
Ti117     Er120    9.999   .     S
Ti117     Ti115    10.0   1_655     S
Er118     Ti119    9.999   .     S
Er118     V149    10.0   1_655     S
Ti119     Ti107    10.0   1_545     S
Ti119     Er120    10.0   .     S
V121     Er10    10.0   1_556     S
V121     V122    10.0   .     S
V121     Ti143    10.0   .     S
V121     Er144    10.0   .     S
V122     Ti141    10.0   .     S
V122     Er142    10.0   .     S
V122     Er202    10.0   .     S
V123     V124    10.0   .     S
V123     Ti135    10.0   .     S
V123     Er136    10.0   .     S
V124     Ti133    10.0   .     S
V124     Er134    10.0   .     S
V125     Er14    10.0   1_554     S
V125     V126    10.0   .     S
V125     Ti129    10.0   .     S
V125     Er130    10.0   .     S
V126     Ti131    10.0   .     S
V126     Er132    10.0   .     S
V127     V128    10.0   .     S
V127     Ti137    10.0   .     S
V127     Er138    10.0   .     S
V127     Er214    10.0   .     S
V128     Ti139    10.0   .     S
V128     Er140    10.0   .     S
Ti129     Er130    10.0   .     S
Ti129     Er132    9.999   .     S
Ti129     Ti143    10.0   1_554     S
Er130     Ti131    9.999   .     S
Ti131     Er132    10.0   .     S
Ti131     Ti133    10.0   .     S
Ti133     Er134    10.0   .     S
Ti133     Er136    9.999   .     S
Er134     Ti135    9.999   .     S
Ti135     Er136    10.0   .     S
Ti135     Ti139    10.0   .     S
Ti137     Er138    10.0   .     S
Ti137     Er140    9.999   .     S
Ti137     Ti141    10.0   .     S
Er138     Ti139    9.999   .     S
Er138     V193    10.0   .     S
Ti139     Er140    10.0   .     S
Ti141     Er142    10.0   .     S
Ti141     Er144    9.999   .     S
Er142     Ti143    9.999   .     S
Er142     V196    10.0   .     S
Ti143     Er144    10.0   .     S
Ti143     Ti129    10.0   1_556     S
V145     V146    10.0   .     S
V145     Ti157    10.0   .     S
V145     Er158    10.0   .     S
V145     Er262    10.0   .     S
V146     Ti159    10.0   .     S
V146     Er160    10.0   .     S
V146     Er204    10.0   .     S
V147     Er116    10.0   1_655     S
V147     V148    10.0   .     S
V147     Ti167    10.0   .     S
V147     Er168    10.0   .     S
V148     Ti165    10.0   .     S
V148     Er166    10.0   .     S
V148     Er250    10.0   .     S
V149     Er118    10.0   1_455     S
V149     V150    10.0   .     S
V149     Ti161    10.0   .     S
V149     Er162    10.0   .     S
V150     Ti163    10.0   .     S
V150     Er164    10.0   .     S
V151     V152    10.0   .     S
V151     Ti155    10.0   .     S
V151     Er156    10.0   .     S
V152     Ti153    10.0   .     S
V152     Er154    10.0   .     S
V152     Er208    10.0   .     S
Ti153     Er154    10.0   .     S
Ti153     Er156    9.999   .     S
Ti153     Ti159    10.0   .     S
Er154     Ti155    9.999   .     S
Er154     V194    10.0   .     S
Ti155     Er156    10.0   .     S
Ti155     Ti163    10.0   .     S
Ti157     Er158    10.0   .     S
Ti157     Er160    9.999   .     S
Ti157     Ti165    10.0   .     S
Er158     Ti159    9.999   .     S
Er158     V241    10.0   .     S
Ti159     Er160    10.0   .     S
Er160     V200    10.0   .     S
Ti161     Er162    10.0   .     S
Ti161     Er164    9.999   .     S
Ti161     Ti167    10.0   1_455     S
Er162     Ti163    9.999   .     S
Ti163     Er164    10.0   .     S
Ti165     Er166    10.0   .     S
Ti165     Er168    9.999   .     S
Er166     Ti167    9.999   .     S
Er166     V243    10.0   .     S
Ti167     Er168    10.0   .     S
Ti167     Ti161    10.0   1_655     S
V169     Er110    10.0   1_655     S
V169     V170    10.0   .     S
V169     Ti181    10.0   .     S
V169     Er182    10.0   .     S
V170     Ti183    10.0   .     S
V170     Er184    10.0   .     S
V170     Er254    10.0   .     S
V171     V172    10.0   .     S
V171     Ti189    10.0   .     S
V171     Er190    10.0   .     S
V171     Er258    10.0   .     S
V172     Ti191    10.0   .     S
V172     Er192    10.0   .     S
V172     Er216    10.0   .     S
V173     Er106    10.0   1_455     S
V173     V174    10.0   .     S
V173     Ti177    10.0   .     S
V173     Er178    10.0   .     S
V174     Ti179    10.0   .     S
V174     Er180    10.0   .     S
V175     V176    10.0   .     S
V175     Ti187    10.0   .     S
V175     Er188    10.0   .     S
V176     Ti185    10.0   .     S
V176     Er186    10.0   .     S
V176     Er212    10.0   .     S
Ti177     Er178    10.0   .     S
Ti177     Er180    9.999   .     S
Ti177     Ti181    10.0   1_455     S
Er178     Ti179    9.999   .     S
Ti179     Er180    10.0   .     S
Ti179     Ti187    10.0   1_554     S
Er180     V29    10.0   1_554     S
Ti181     Er182    10.0   .     S
Ti181     Er184    9.999   .     S
Ti181     Ti177    10.0   1_655     S
Er182     Ti183    9.999   .     S
Ti183     Er184    10.0   .     S
Ti183     Ti189    10.0   1_554     S
Er184     V245    10.0   1_554     S
Ti185     Er186    10.0   .     S
Ti185     Er188    9.999   .     S
Ti185     Ti191    10.0   .     S
Er186     Ti187    9.999   .     S
Er186     V195    10.0   .     S
Ti187     Er188    10.0   .     S
Ti187     Ti179    10.0   1_556     S
Er188     V32    10.0   1_556     S
Ti189     Er190    10.0   .     S
Ti189     Er192    9.999   .     S
Ti189     Ti183    10.0   1_556     S
Er190     Ti191    9.999   .     S
Er190     V247    10.0   1_556     S
Ti191     Er192    10.0   .     S
Er192     V198    10.0   .     S
V193     V194    10.0   .     S
V193     Ti201    10.0   .     S
V193     Er202    10.0   .     S
V194     Ti203    10.0   .     S
V194     Er204    10.0   .     S
V195     V196    10.0   .     S
V195     Ti215    10.0   .     S
V195     Er216    10.0   .     S
V196     Ti213    10.0   .     S
V196     Er214    10.0   .     S
V197     Er88    10.0   1_565     S
V197     V198    10.0   .     S
V197     Ti209    10.0   .     S
V197     Er210    10.0   .     S
V198     Ti211    10.0   .     S
V198     Er212    10.0   .     S
V199     Er94    10.0   1_545     S
V199     V200    10.0   .     S
V199     Ti205    10.0   .     S
V199     Er206    10.0   .     S
V200     Ti207    10.0   .     S
V200     Er208    10.0   .     S
Ti201     Er202    10.0   .     S
Ti201     Er204    9.999   .     S
Ti201     Ti213    10.0   .     S
Er202     Ti203    9.999   .     S
Ti203     Er204    10.0   .     S
Ti203     Ti207    10.0   .     S
Ti205     Er206    10.0   .     S
Ti205     Er208    9.999   .     S
Ti205     Ti209    10.0   1_545     S
Er206     Ti207    9.999   .     S
Ti207     Er208    10.0   .     S
Ti209     Er210    10.0   .     S
Ti209     Er212    9.999   .     S
Ti209     Ti205    10.0   1_565     S
Er210     Ti211    9.999   .     S
Ti211     Er212    10.0   .     S
Ti211     Ti215    10.0   .     S
Ti213     Er214    10.0   .     S
Ti213     Er216    9.999   .     S
Er214     Ti215    9.999   .     S
Ti215     Er216    10.0   .     S
V217     V218    10.0   .     S
V217     Ti237    10.0   .     S
V217     Er238    10.0   .     S
V218     Ti239    10.0   .     S
V218     Er240    10.0   .     S
V218     Er252    10.0   .     S
V219     Er36    10.0   1_565     S
V219     V220    10.0   .     S
V219     Ti231    10.0   .     S
V219     Er232    10.0   .     S
V220     Ti229    10.0   .     S
V220     Er230    10.0   .     S
V221     V222    10.0   .     S
V221     Ti235    10.0   .     S
V221     Er236    10.0   .     S
V222     Ti233    10.0   .     S
V222     Er234    10.0   .     S
V222     Er256    10.0   .     S
V223     Er46    10.0   1_545     S
V223     V224    10.0   .     S
V223     Ti225    10.0   .     S
V223     Er226    10.0   .     S
V224     Ti227    10.0   .     S
V224     Er228    10.0   .     S
Ti225     Er226    10.0   .     S
Ti225     Er228    9.999   .     S
Ti225     Ti231    10.0   1_545     S
Er226     Ti227    9.999   .     S
Ti227     Er228    10.0   .     S
Ti227     Ti235    10.0   .     S
Ti229     Er230    10.0   .     S
Ti229     Er232    9.999   .     S
Ti229     Ti237    10.0   .     S
Er230     Ti231    9.999   .     S
Ti231     Er232    10.0   .     S
Ti231     Ti225    10.0   1_565     S
Ti233     Er234    10.0   .     S
Ti233     Er236    9.999   .     S
Ti233     Ti239    10.0   .     S
Er234     Ti235    9.999   .     S
Er234     V242    10.0   .     S
Ti235     Er236    10.0   .     S
Ti237     Er238    10.0   .     S
Ti237     Er240    9.999   .     S
Er238     Ti239    9.999   .     S
Ti239     Er240    10.0   .     S
Er240     V248    10.0   .     S
V241     V242    10.0   .     S
V241     Ti249    10.0   .     S
V241     Er250    10.0   .     S
V242     Ti251    10.0   .     S
V242     Er252    10.0   .     S
V243     V244    10.0   .     S
V243     Ti261    10.0   .     S
V243     Er262    10.0   .     S
V244     Ti263    10.0   .     S
V244     Er264    10.0   .     S
V244     Er282    10.0   .     S
V245     Er184    10.0   1_556     S
V245     V246    10.0   .     S
V245     Ti257    10.0   .     S
V245     Er258    10.0   .     S
V246     Ti259    10.0   .     S
V246     Er260    10.0   .     S
V246     Er288    10.0   .     S
V247     Er190    10.0   1_554     S
V247     V248    10.0   .     S
V247     Ti253    10.0   .     S
V247     Er254    10.0   .     S
V248     Ti255    10.0   .     S
V248     Er256    10.0   .     S
Ti249     Er250    10.0   .     S
Ti249     Er252    9.999   .     S
Ti249     Ti261    10.0   .     S
Er250     Ti251    9.999   .     S
Ti251     Er252    10.0   .     S
Ti251     Ti255    10.0   .     S
Ti253     Er254    10.0   .     S
Ti253     Er256    9.999   .     S
Ti253     Ti257    10.0   1_554     S
Er254     Ti255    9.999   .     S
Ti255     Er256    10.0   .     S
Ti257     Er258    10.0   .     S
Ti257     Er260    9.999   .     S
Ti257     Ti253    10.0   1_556     S
Er258     Ti259    9.999   .     S
Ti259     Er260    10.0   .     S
Ti259     Ti263    10.0   .     S
Er260     V266    10.0   .     S
Ti261     Er262    10.0   .     S
Ti261     Er264    9.999   .     S
Er262     Ti263    9.999   .     S
Ti263     Er264    10.0   .     S
Er264     V268    10.0   .     S
V265     V266    10.0   .     S
V265     Ti283    10.0   .     S
V265     Er284    10.0   .     S
V266     Ti281    10.0   .     S
V266     Er282    10.0   .     S
V267     V268    10.0   .     S
V267     Ti285    10.0   .     S
V267     Er286    10.0   .     S
V268     Ti287    10.0   .     S
V268     Er288    10.0   .     S
V269     Er38    10.0   1_565     S
V269     V270    10.0   .     S
V269     Ti277    10.0   .     S
V269     Er278    10.0   .     S
V270     Ti279    10.0   .     S
V270     Er280    10.0   .     S
V271     Er42    10.0   1_545     S
V271     V272    10.0   .     S
V271     Ti273    10.0   .     S
V271     Er274    10.0   .     S
V272     Ti275    10.0   .     S
V272     Er276    10.0   .     S
Ti273     Er274    10.0   .     S
Ti273     Er276    9.999   .     S
Ti273     Ti277    10.0   1_545     S
Er274     Ti275    9.999   .     S
Ti275     Er276    10.0   .     S
Ti275     Ti283    10.0   1_455     S
Er276     V7    10.0   1_455     S
Ti277     Er278    10.0   .     S
Ti277     Er280    9.999   .     S
Ti277     Ti273    10.0   1_565     S
Er278     Ti279    9.999   .     S
Ti279     Er280    10.0   .     S
Ti279     Ti285    10.0   1_455     S
Er280     V55    10.0   1_455     S
Ti281     Er282    10.0   .     S
Ti281     Er284    9.999   .     S
Ti281     Ti287    10.0   .     S
Er282     Ti283    9.999   .     S
Ti283     Er284    10.0   .     S
Ti283     Ti275    10.0   1_655     S
Er284     V6    10.0   1_655     S
Ti285     Er286    10.0   .     S
Ti285     Er288    9.999   .     S
Ti285     Ti279    10.0   1_655     S
Er286     Ti287    9.999   .     S
Er286     V49    10.0   1_655     S
Ti287     Er288    10.0   .     S
