data_kfie
_audit_creation_date              2020-02-04
_audit_creation_method            'Pymatgen'
_symmetry_space_group_name_H-M    'P1'
_symmetry_Int_Tables_number       1
loop_
_symmetry_equiv_pos_as_xyz
  x,y,z
_cell_length_a                    70.7378
_cell_length_b                    70.7378
_cell_length_c                    70.7378
_cell_angle_alpha                 90.0
_cell_angle_beta                 90.0
_cell_angle_gamma                 90.0
loop_
_atom_site_label
_atom_site_type_symbol
_atom_site_fract_x
_atom_site_fract_y
_atom_site_fract_z
Ce1     Ce     0.1128   0.3872   0.25
Ce2     Ce     0.25   0.6128   0.1128
Ce3     Ce     0.25   0.3872   0.1128
Ce4     Ce     0.1128   0.6128   0.25
V5     V     0.3152   0.5   0.1677
V6     V     0.1677   0.5   0.3152
Ti7     Ti     0.2529   0.4059   0.2529
Ti8     Ti     0.2529   0.5941   0.2529
Er9     Er     0.3712   0.6288   0.1838
Er10     Er     0.1838   0.6288   0.3712
Ce11     Ce     0.6128   0.1128   0.25
Ce12     Ce     0.3872   0.25   0.1128
Ce13     Ce     0.6128   0.25   0.1128
Ce14     Ce     0.3872   0.1128   0.25
V15     V     0.5   0.3152   0.1677
V16     V     0.5   0.1677   0.3152
Ti17     Ti     0.5941   0.2529   0.2529
Ti18     Ti     0.4059   0.2529   0.2529
Er19     Er     0.6288   0.3712   0.1838
Er20     Er     0.6288   0.1838   0.3712
Ce21     Ce     0.1128   0.25   0.6128
Ce22     Ce     0.25   0.1128   0.3872
Ce23     Ce     0.25   0.1128   0.6128
Ce24     Ce     0.1128   0.25   0.3872
V25     V     0.3152   0.1677   0.5
V26     V     0.1677   0.3152   0.5
Ti27     Ti     0.2529   0.2529   0.4059
Ti28     Ti     0.2529   0.2529   0.5941
Er29     Er     0.1838   0.3712   0.6288
Er30     Er     0.3712   0.1838   0.6288
Ce31     Ce     0.75   0.1128   0.6128
Ce32     Ce     0.75   0.1128   0.3872
V33     V     0.8323   0.3152   0.5
V34     V     0.6848   0.1677   0.5
Ti35     Ti     0.7471   0.2529   0.4059
Ti36     Ti     0.7471   0.2529   0.5941
Ce37     Ce     0.1128   0.75   0.3872
Ce38     Ce     0.1128   0.75   0.6128
V39     V     0.3152   0.8323   0.5
V40     V     0.1677   0.6848   0.5
Ti41     Ti     0.2529   0.7471   0.4059
Ti42     Ti     0.2529   0.7471   0.5941
V43     V     0.8152   0.6677   0.0
V44     V     0.6677   0.8152   0.0
Ti45     Ti     0.7529   0.7529   0.9059
Ti46     Ti     0.7529   0.7529   0.0941
V47     V     0.1848   0.6677   0.0
V48     V     0.3323   0.8152   0.0
Ti49     Ti     0.2471   0.7529   0.9059
Ti50     Ti     0.2471   0.7529   0.0941
Ce51     Ce     0.1128   0.6128   0.75
Ce52     Ce     0.1128   0.3872   0.75
Ce53     Ce     0.25   0.6128   0.8872
Ce54     Ce     0.25   0.3872   0.8872
V55     V     0.3152   0.5   0.8323
V56     V     0.1677   0.5   0.6848
Ti57     Ti     0.2529   0.5941   0.7471
Ti58     Ti     0.2529   0.4059   0.7471
Er59     Er     0.3712   0.6288   0.8162
V60     V     0.1848   0.3323   0.0
V61     V     0.3323   0.1848   0.0
Ti62     Ti     0.2471   0.2471   0.9059
Ti63     Ti     0.2471   0.2471   0.0941
Er64     Er     0.1288   0.3162   0.8712
Er65     Er     0.3162   0.1288   0.8712
Ce66     Ce     0.3872   0.1128   0.75
Ce67     Ce     0.6128   0.1128   0.75
Ce68     Ce     0.3872   0.25   0.8872
Ce69     Ce     0.6128   0.25   0.8872
V70     V     0.5   0.3152   0.8323
V71     V     0.5   0.1677   0.6848
Ti72     Ti     0.4059   0.2529   0.7471
Ti73     Ti     0.5941   0.2529   0.7471
Er74     Er     0.6288   0.3712   0.8162
V75     V     0.6677   0.1848   0.0
V76     V     0.8152   0.3323   0.0
Ti77     Ti     0.7529   0.2471   0.9059
Ti78     Ti     0.7529   0.2471   0.0941
Ce79     Ce     0.25   0.8872   0.3872
V80     V     0.1848   0.0   0.3323
V81     V     0.3323   0.0   0.1848
Ti82     Ti     0.2471   0.9059   0.2471
Ti83     Ti     0.2471   0.0941   0.2471
Ce84     Ce     0.3872   0.8872   0.25
Ce85     Ce     0.6128   0.75   0.1128
Ce86     Ce     0.3872   0.75   0.1128
V87     V     0.5   0.8323   0.3152
V88     V     0.5   0.6848   0.1677
Ti89     Ti     0.4059   0.7471   0.2529
Ti90     Ti     0.5941   0.7471   0.2529
Ce91     Ce     0.6128   0.8872   0.25
Ce92     Ce     0.75   0.8872   0.3872
V93     V     0.6677   0.0   0.1848
V94     V     0.8152   0.0   0.3323
Ti95     Ti     0.7529   0.9059   0.2471
Ti96     Ti     0.7529   0.0941   0.2471
Er97     Er     0.6838   0.8712   0.1288
Er98     Er     0.6288   0.8162   0.3712
Er99     Er     0.1288   0.8712   0.3162
Er100     Er     0.3162   0.8712   0.1288
Ce101     Ce     0.8872   0.25   0.6128
V102     V     0.0   0.1848   0.6677
V103     V     0.0   0.3323   0.8152
Ti104     Ti     0.9059   0.2471   0.7529
Ti105     Ti     0.0941   0.2471   0.7529
Ce106     Ce     0.8872   0.3872   0.75
Ce107     Ce     0.75   0.6128   0.8872
Ce108     Ce     0.75   0.3872   0.8872
V109     V     0.6848   0.5   0.8323
V110     V     0.8323   0.5   0.6848
Ti111     Ti     0.7471   0.4059   0.7471
Ti112     Ti     0.7471   0.5941   0.7471
Ce113     Ce     0.8872   0.6128   0.75
Ce114     Ce     0.8872   0.75   0.6128
V115     V     0.0   0.6677   0.8152
V116     V     0.0   0.8152   0.6677
Ti117     Ti     0.9059   0.7529   0.7529
Ti118     Ti     0.0941   0.7529   0.7529
Er119     Er     0.8712   0.1288   0.6838
Ce120     Ce     0.25   0.8872   0.6128
V121     V     0.1848   0.0   0.6677
V122     V     0.3323   0.0   0.8152
Ti123     Ti     0.2471   0.9059   0.7529
Ti124     Ti     0.2471   0.0941   0.7529
Ce125     Ce     0.3872   0.75   0.8872
Ce126     Ce     0.3872   0.8872   0.75
Ce127     Ce     0.6128   0.75   0.8872
V128     V     0.5   0.6848   0.8323
V129     V     0.5   0.8323   0.6848
Ti130     Ti     0.5941   0.7471   0.7471
Ti131     Ti     0.4059   0.7471   0.7471
Ce132     Ce     0.6128   0.8872   0.75
Ce133     Ce     0.75   0.8872   0.6128
V134     V     0.6677   0.0   0.8152
V135     V     0.8152   0.0   0.6677
Ti136     Ti     0.7529   0.9059   0.7529
Ti137     Ti     0.7529   0.0941   0.7529
Er138     Er     0.1288   0.8712   0.6838
V139     V     0.6848   0.8323   0.5
V140     V     0.8323   0.6848   0.5
Ti141     Ti     0.7471   0.7471   0.5941
Ti142     Ti     0.7471   0.7471   0.4059
Ce143     Ce     0.8872   0.75   0.3872
V144     V     0.0   0.6677   0.1848
V145     V     0.0   0.8152   0.3323
Ti146     Ti     0.9059   0.7529   0.2471
Ti147     Ti     0.0941   0.7529   0.2471
Ce148     Ce     0.8872   0.6128   0.25
Ce149     Ce     0.75   0.3872   0.1128
Ce150     Ce     0.75   0.6128   0.1128
V151     V     0.8323   0.5   0.3152
V152     V     0.6848   0.5   0.1677
Ti153     Ti     0.7471   0.5941   0.2529
Ti154     Ti     0.7471   0.4059   0.2529
Ce155     Ce     0.8872   0.25   0.3872
Ce156     Ce     0.8872   0.3872   0.25
V157     V     0.0   0.3323   0.1848
V158     V     0.0   0.1848   0.3323
Ti159     Ti     0.9059   0.2471   0.2471
Ti160     Ti     0.0941   0.2471   0.2471
Er161     Er     0.8712   0.1288   0.3162
Er162     Er     0.8712   0.3162   0.1288
Er163     Er     0.8162   0.6288   0.3712
Er164     Er     0.8712   0.6838   0.1288
Er165     Er     0.6838   0.1288   0.8712
Er166     Er     0.1288   0.6838   0.8712
Er167     Er     0.3712   0.8162   0.6288
Er168     Er     0.8162   0.3712   0.6288
Er169     Er     0.1288   0.1288   0.3162
Er170     Er     0.1288   0.1288   0.6838
Er171     Er     0.3162   0.1288   0.1288
Er172     Er     0.1288   0.6838   0.1288
Er173     Er     0.1288   0.3162   0.1288
Er174     Er     0.6838   0.1288   0.1288
Er175     Er     0.8712   0.8712   0.3162
Er176     Er     0.3162   0.8712   0.8712
Er177     Er     0.8712   0.3162   0.8712
Er178     Er     0.8712   0.8712   0.6838
Er179     Er     0.8712   0.6838   0.8712
Er180     Er     0.6838   0.8712   0.8712
Er181     Er     0.6288   0.6288   0.8162
Er182     Er     0.3712   0.3712   0.8162
Er183     Er     0.6288   0.6288   0.1838
Er184     Er     0.3712   0.3712   0.1838
Er185     Er     0.8162   0.6288   0.6288
Er186     Er     0.6288   0.1838   0.6288
Er187     Er     0.8162   0.3712   0.3712
Er188     Er     0.3712   0.1838   0.3712
Er189     Er     0.6288   0.8162   0.6288
Er190     Er     0.3712   0.8162   0.3712
Er191     Er     0.1838   0.3712   0.3712
Er192     Er     0.1838   0.6288   0.6288
loop_
_geom_bond_atom_site_label_1
_geom_bond_atom_site_label_2
_geom_bond_distance
_geom_bond_site_symmetry_2
_ccdc_geom_bond_type
Ce1     V6    10.0   .     S
Ce1     V157    10.0   .     S
Ce1     Er191    10.001   .     S
Ce1     Er173    10.001   .     S
Ce1     Ti7    10.0   .     S
Ce1     Ti160    10.0   .     S
Ce2     V5    10.0   .     S
Ce2     V47    10.0   .     S
Ce2     Er9    10.001   .     S
Ce2     Er172    10.001   .     S
Ce2     Ti8    10.0   .     S
Ce2     Ti50    10.0   .     S
Ce3     V5    10.0   .     S
Ce3     V60    10.0   .     S
Ce3     Er184    10.001   .     S
Ce3     Er173    10.001   .     S
Ce3     Ti7    10.0   .     S
Ce3     Ti63    10.0   .     S
Ce4     V6    10.0   .     S
Ce4     V144    10.0   .     S
Ce4     Er10    10.001   .     S
Ce4     Er172    10.001   .     S
Ce4     Ti8    10.0   .     S
Ce4     Ti147    10.0   .     S
V5     Ti8    10.0   .     S
V5     Ti7    10.0   .     S
V5     Er184    10.0   .     S
V5     Er9    10.0   .     S
V6     Ti7    10.0   .     S
V6     Ti8    10.0   .     S
V6     Er10    10.0   .     S
V6     Er191    10.0   .     S
Ti7     Er184    10.0   .     S
Ti7     Er191    10.0   .     S
Ti8     Er9    10.0   .     S
Ti8     Er10    10.0   .     S
Er9     Ce86    10.001   .     S
Er9     Ti89    10.0   .     S
Er9     V88    10.0   .     S
Er10     Ce37    10.001   .     S
Er10     Ti41    10.0   .     S
Er10     V40    10.0   .     S
Ce11     V16    10.0   .     S
Ce11     V93    10.0   .     S
Ce11     Er20    10.001   .     S
Ce11     Er174    10.001   .     S
Ce11     Ti17    10.0   .     S
Ce11     Ti96    10.0   .     S
Ce12     V15    10.0   .     S
Ce12     V61    10.0   .     S
Ce12     Er184    10.001   .     S
Ce12     Er171    10.001   .     S
Ce12     Ti18    10.0   .     S
Ce12     Ti63    10.0   .     S
Ce13     V15    10.0   .     S
Ce13     V75    10.0   .     S
Ce13     Er19    10.001   .     S
Ce13     Er174    10.001   .     S
Ce13     Ti17    10.0   .     S
Ce13     Ti78    10.0   .     S
Ce14     V81    10.0   .     S
Ce14     V16    10.0   .     S
Ce14     Er188    10.001   .     S
Ce14     Er171    10.001   .     S
Ce14     Ti18    10.0   .     S
Ce14     Ti83    10.0   .     S
V15     Ti18    10.0   .     S
V15     Ti17    10.0   .     S
V15     Er19    10.0   .     S
V15     Er184    10.0   .     S
V16     Ti17    10.0   .     S
V16     Ti18    10.0   .     S
V16     Er188    10.0   .     S
V16     Er20    10.0   .     S
Ti17     Er19    10.0   .     S
Ti17     Er20    10.0   .     S
Ti18     Er184    10.0   .     S
Ti18     Er188    10.0   .     S
Er19     Ce149    10.001   .     S
Er19     Ti154    10.0   .     S
Er19     V152    10.0   .     S
Er20     Ce32    10.001   .     S
Er20     Ti35    10.0   .     S
Er20     V34    10.0   .     S
Ce21     V26    10.0   .     S
Ce21     V102    10.0   .     S
Ce21     Er29    10.001   .     S
Ce21     Er170    10.001   .     S
Ce21     Ti28    10.0   .     S
Ce21     Ti105    10.0   .     S
Ce22     V25    10.0   .     S
Ce22     V80    10.0   .     S
Ce22     Er188    10.001   .     S
Ce22     Er169    10.001   .     S
Ce22     Ti27    10.0   .     S
Ce22     Ti83    10.0   .     S
Ce23     V25    10.0   .     S
Ce23     V121    10.0   .     S
Ce23     Er30    10.001   .     S
Ce23     Er170    10.001   .     S
Ce23     Ti28    10.0   .     S
Ce23     Ti124    10.0   .     S
Ce24     V158    10.0   .     S
Ce24     V26    10.0   .     S
Ce24     Er191    10.001   .     S
Ce24     Er169    10.001   .     S
Ce24     Ti27    10.0   .     S
Ce24     Ti160    10.0   .     S
V25     Ti27    10.0   .     S
V25     Ti28    10.0   .     S
V25     Er30    10.0   .     S
V25     Er188    10.0   .     S
V26     Ti28    10.0   .     S
V26     Ti27    10.0   .     S
V26     Er191    10.0   .     S
V26     Er29    10.0   .     S
Ti27     Er188    10.0   .     S
Ti27     Er191    10.0   .     S
Ti28     Er30    10.0   .     S
Ti28     Er29    10.0   .     S
Er29     Ce52    10.001   .     S
Er29     Ti58    10.0   .     S
Er29     V56    10.0   .     S
Er30     Ce66    10.001   .     S
Er30     Ti72    10.0   .     S
Er30     V71    10.0   .     S
Ce31     V34    10.0   .     S
Ce31     V135    10.0   .     S
Ce31     Er186    10.001   .     S
Ce31     Er119    10.001   .     S
Ce31     Ti137    10.0   .     S
Ce31     Ti36    10.0   .     S
Ce32     V94    10.0   .     S
Ce32     V34    10.0   .     S
Ce32     Er161    10.001   .     S
Ce32     Ti96    10.0   .     S
Ce32     Ti35    10.0   .     S
V33     Ti35    10.0   .     S
V33     Ti36    10.0   .     S
V33     Er168    10.0   .     S
V33     Er187    10.0   .     S
V33     Ce101    10.0   .     S
V33     Ce155    10.0   .     S
V34     Ti36    10.0   .     S
V34     Ti35    10.0   .     S
V34     Er186    10.0   .     S
Ti35     Er187    10.0   .     S
Ti35     Ce155    10.0   .     S
Ti36     Er168    10.0   .     S
Ti36     Er186    10.0   .     S
Ti36     Ce101    10.0   .     S
Ce37     V145    10.0   .     S
Ce37     V40    10.0   .     S
Ce37     Er99    10.001   .     S
Ce37     Ti147    10.0   .     S
Ce37     Ti41    10.0   .     S
Ce38     V40    10.0   .     S
Ce38     V116    10.0   .     S
Ce38     Er192    10.001   .     S
Ce38     Er138    10.001   .     S
Ce38     Ti118    10.0   .     S
Ce38     Ti42    10.0   .     S
V39     Ti42    10.0   .     S
V39     Ti41    10.0   .     S
V39     Er190    10.0   .     S
V39     Er167    10.0   .     S
V39     Ce79    10.0   .     S
V39     Ce120    10.0   .     S
V40     Ti42    10.0   .     S
V40     Ti41    10.0   .     S
V40     Er192    10.0   .     S
Ti41     Er190    10.0   .     S
Ti41     Ce79    10.0   .     S
Ti42     Er167    10.0   .     S
Ti42     Er192    10.0   .     S
Ti42     Ce120    10.0   .     S
V43     Ti46    10.0   .     S
V43     Ti45    10.0   1_554     S
V43     Er164    10.0   .     S
V43     Er179    10.0   1_554     S
V43     Ce107    10.0   1_554     S
V43     Ce150    10.0   .     S
V44     Ti46    10.0   .     S
V44     Ti45    10.0   1_554     S
V44     Er97    10.0   .     S
V44     Er180    10.0   1_554     S
V44     Ce85    10.0   .     S
V44     Ce127    10.0   1_554     S
Ti45     Er179    10.0   .     S
Ti45     V43    10.0   1_556     S
Ti45     Er180    10.0   .     S
Ti45     V44    10.0   1_556     S
Ti45     Ce127    10.0   .     S
Ti45     Ce107    10.0   .     S
Ti46     Er164    10.0   .     S
Ti46     Er97    10.0   .     S
Ti46     Ce150    10.0   .     S
Ti46     Ce85    10.0   .     S
V47     Ti50    10.0   .     S
V47     Ti49    10.0   1_554     S
V47     Er172    10.0   .     S
V47     Er166    10.0   1_554     S
V47     Ce53    10.0   1_554     S
V48     Ti50    10.0   .     S
V48     Ti49    10.0   1_554     S
V48     Er100    10.0   .     S
V48     Er176    10.0   1_554     S
V48     Ce86    10.0   .     S
V48     Ce125    10.0   1_554     S
Ti49     Er166    10.0   .     S
Ti49     V47    10.0   1_556     S
Ti49     Er176    10.0   .     S
Ti49     V48    10.0   1_556     S
Ti49     Ce125    10.0   .     S
Ti49     Ce53    10.0   .     S
Ti50     Er172    10.0   .     S
Ti50     Er100    10.0   .     S
Ti50     Ce86    10.0   .     S
Ce51     V56    10.0   .     S
Ce51     V115    10.0   .     S
Ce51     Er192    10.001   .     S
Ce51     Er166    10.001   .     S
Ce51     Ti118    10.0   .     S
Ce51     Ti57    10.0   .     S
Ce52     V103    10.0   .     S
Ce52     V56    10.0   .     S
Ce52     Er64    10.001   .     S
Ce52     Ti105    10.0   .     S
Ce52     Ti58    10.0   .     S
Ce53     Er166    10.001   .     S
Ce53     V55    10.0   .     S
Ce53     V47    10.0   1_556     S
Ce53     Er59    10.001   .     S
Ce53     Ti57    10.0   .     S
Ce54     V60    10.0   1_556     S
Ce54     V55    10.0   .     S
Ce54     Er182    10.001   .     S
Ce54     Er64    10.001   .     S
Ce54     Ti58    10.0   .     S
Ce54     Ti62    10.0   .     S
V55     Ti57    10.0   .     S
V55     Ti58    10.0   .     S
V55     Er59    10.0   .     S
V55     Er182    10.0   .     S
V56     Ti58    10.0   .     S
V56     Ti57    10.0   .     S
V56     Er192    10.0   .     S
Ti57     Er59    10.0   .     S
Ti57     Er192    10.0   .     S
Ti58     Er182    10.0   .     S
Er59     Ce125    10.001   .     S
Er59     Ti131    10.0   .     S
Er59     V128    10.0   .     S
V60     Ce54    10.0   1_554     S
V60     Ti63    10.0   .     S
V60     Ti62    10.0   1_554     S
V60     Er173    10.0   .     S
V60     Er64    10.0   1_554     S
V61     Ti63    10.0   .     S
V61     Ti62    10.0   1_554     S
V61     Er171    10.0   .     S
V61     Er65    10.0   1_554     S
V61     Ce68    10.0   1_554     S
Ti62     Er64    10.0   .     S
Ti62     V60    10.0   1_556     S
Ti62     Er65    10.0   .     S
Ti62     V61    10.0   1_556     S
Ti62     Ce68    10.0   .     S
Ti63     Er173    10.0   .     S
Ti63     Er171    10.0   .     S
Er64     V60    10.0   1_556     S
Er64     Ti105    10.0   .     S
Er64     V103    10.0   .     S
Er65     Ce68    10.001   .     S
Er65     V61    10.0   1_556     S
Er65     Ce66    10.001   .     S
Er65     Ti124    10.0   .     S
Er65     V122    10.0   .     S
Ce66     V122    10.0   .     S
Ce66     V71    10.0   .     S
Ce66     Ti124    10.0   .     S
Ce66     Ti72    10.0   .     S
Ce67     V71    10.0   .     S
Ce67     V134    10.0   .     S
Ce67     Er186    10.001   .     S
Ce67     Er165    10.001   .     S
Ce67     Ti137    10.0   .     S
Ce67     Ti73    10.0   .     S
Ce68     V61    10.0   1_556     S
Ce68     V70    10.0   .     S
Ce68     Er182    10.001   .     S
Ce68     Ti72    10.0   .     S
Ce69     V75    10.0   1_556     S
Ce69     V70    10.0   .     S
Ce69     Er74    10.001   .     S
Ce69     Er165    10.001   .     S
Ce69     Ti73    10.0   .     S
Ce69     Ti77    10.0   .     S
V70     Ti72    10.0   .     S
V70     Ti73    10.0   .     S
V70     Er182    10.0   .     S
V70     Er74    10.0   .     S
V71     Ti73    10.0   .     S
V71     Ti72    10.0   .     S
V71     Er186    10.0   .     S
Ti72     Er182    10.0   .     S
Ti73     Er74    10.0   .     S
Ti73     Er186    10.0   .     S
Er74     Ce108    10.001   .     S
Er74     Ti111    10.0   .     S
Er74     V109    10.0   .     S
V75     Ce69    10.0   1_554     S
V75     Ti78    10.0   .     S
V75     Ti77    10.0   1_554     S
V75     Er174    10.0   .     S
V75     Er165    10.0   1_554     S
V76     Ti78    10.0   .     S
V76     Ti77    10.0   1_554     S
V76     Er162    10.0   .     S
V76     Er177    10.0   1_554     S
V76     Ce108    10.0   1_554     S
V76     Ce149    10.0   .     S
Ti77     Er165    10.0   .     S
Ti77     V75    10.0   1_556     S
Ti77     Er177    10.0   .     S
Ti77     V76    10.0   1_556     S
Ti77     Ce108    10.0   .     S
Ti78     Er174    10.0   .     S
Ti78     Er162    10.0   .     S
Ti78     Ce149    10.0   .     S
Ce79     Er190    10.001   .     S
Ce79     V80    10.0   1_565     S
Ce79     Er99    10.001   .     S
Ce79     Ti82    10.0   .     S
V80     Ce79    10.0   1_545     S
V80     Ti83    10.0   .     S
V80     Ti82    10.0   1_545     S
V80     Er169    10.0   .     S
V80     Er99    10.0   1_545     S
V81     Ti83    10.0   .     S
V81     Ti82    10.0   1_545     S
V81     Er171    10.0   .     S
V81     Er100    10.0   1_545     S
V81     Ce84    10.0   1_545     S
Ti82     Er99    10.0   .     S
Ti82     V80    10.0   1_565     S
Ti82     Er100    10.0   .     S
Ti82     V81    10.0   1_565     S
Ti82     Ce84    10.0   .     S
Ti83     Er169    10.0   .     S
Ti83     Er171    10.0   .     S
Ce84     Er100    10.001   .     S
Ce84     V81    10.0   1_565     S
Ce84     V87    10.0   .     S
Ce84     Er190    10.001   .     S
Ce84     Ti89    10.0   .     S
Ce85     Er97    10.001   .     S
Ce85     V88    10.0   .     S
Ce85     Er183    10.001   .     S
Ce85     Ti90    10.0   .     S
Ce86     Er100    10.001   .     S
Ce86     V88    10.0   .     S
Ce86     Ti89    10.0   .     S
V87     Ti89    10.0   .     S
V87     Ti90    10.0   .     S
V87     Er98    10.0   .     S
V87     Er190    10.0   .     S
V87     Ce91    10.0   .     S
V88     Ti90    10.0   .     S
V88     Ti89    10.0   .     S
V88     Er183    10.0   .     S
Ti89     Er190    10.0   .     S
Ti90     Er98    10.0   .     S
Ti90     Er183    10.0   .     S
Ti90     Ce91    10.0   .     S
Ce91     Er98    10.001   .     S
Ce91     V93    10.0   1_565     S
Ce91     Er97    10.001   .     S
Ce91     Ti95    10.0   .     S
Ce92     V94    10.0   1_565     S
Ce92     V139    10.0   .     S
Ce92     Er175    10.001   .     S
Ce92     Er98    10.001   .     S
Ce92     Ti95    10.0   .     S
Ce92     Ti142    10.0   .     S
V93     Ce91    10.0   1_545     S
V93     Ti96    10.0   .     S
V93     Ti95    10.0   1_545     S
V93     Er174    10.0   .     S
V93     Er97    10.0   1_545     S
V94     Ce92    10.0   1_545     S
V94     Ti96    10.0   .     S
V94     Ti95    10.0   1_545     S
V94     Er161    10.0   .     S
V94     Er175    10.0   1_545     S
Ti95     Er97    10.0   .     S
Ti95     V93    10.0   1_565     S
Ti95     Er175    10.0   .     S
Ti95     V94    10.0   1_565     S
Ti96     Er174    10.0   .     S
Ti96     Er161    10.0   .     S
Er97     V93    10.0   1_565     S
Er98     Ti142    10.0   .     S
Er98     V139    10.0   .     S
Er99     V80    10.0   1_565     S
Er99     Ti147    10.0   .     S
Er99     V145    10.0   .     S
Er100     V81    10.0   1_565     S
Ce101     Er168    10.001   .     S
Ce101     V102    10.0   1_655     S
Ce101     Er119    10.001   .     S
Ce101     Ti104    10.0   .     S
V102     Ce101    10.0   1_455     S
V102     Ti105    10.0   .     S
V102     Ti104    10.0   1_455     S
V102     Er170    10.0   .     S
V102     Er119    10.0   1_455     S
V103     Ti105    10.0   .     S
V103     Ti104    10.0   1_455     S
V103     Er177    10.0   1_455     S
V103     Ce106    10.0   1_455     S
Ti104     Er119    10.0   .     S
Ti104     V102    10.0   1_655     S
Ti104     Er177    10.0   .     S
Ti104     V103    10.0   1_655     S
Ti104     Ce106    10.0   .     S
Ti105     Er170    10.0   .     S
Ce106     Er177    10.001   .     S
Ce106     V103    10.0   1_655     S
Ce106     V110    10.0   .     S
Ce106     Er168    10.001   .     S
Ce106     Ti111    10.0   .     S
Ce107     Er179    10.001   .     S
Ce107     V43    10.0   1_556     S
Ce107     V109    10.0   .     S
Ce107     Er181    10.001   .     S
Ce107     Ti112    10.0   .     S
Ce108     Er177    10.001   .     S
Ce108     V76    10.0   1_556     S
Ce108     V109    10.0   .     S
Ce108     Ti111    10.0   .     S
V109     Ti112    10.0   .     S
V109     Ti111    10.0   .     S
V109     Er181    10.0   .     S
V110     Ti111    10.0   .     S
V110     Ti112    10.0   .     S
V110     Er185    10.0   .     S
V110     Er168    10.0   .     S
V110     Ce113    10.0   .     S
Ti111     Er168    10.0   .     S
Ti112     Er181    10.0   .     S
Ti112     Er185    10.0   .     S
Ti112     Ce113    10.0   .     S
Ce113     Er185    10.001   .     S
Ce113     V115    10.0   1_655     S
Ce113     Er179    10.001   .     S
Ce113     Ti117    10.0   .     S
Ce114     V116    10.0   1_655     S
Ce114     V140    10.0   .     S
Ce114     Er178    10.001   .     S
Ce114     Er185    10.001   .     S
Ce114     Ti141    10.0   .     S
Ce114     Ti117    10.0   .     S
V115     Ce113    10.0   1_455     S
V115     Ti118    10.0   .     S
V115     Ti117    10.0   1_455     S
V115     Er166    10.0   .     S
V115     Er179    10.0   1_455     S
V116     Ce114    10.0   1_455     S
V116     Ti118    10.0   .     S
V116     Ti117    10.0   1_455     S
V116     Er138    10.0   .     S
V116     Er178    10.0   1_455     S
Ti117     Er179    10.0   .     S
Ti117     V115    10.0   1_655     S
Ti117     Er178    10.0   .     S
Ti117     V116    10.0   1_655     S
Ti118     Er166    10.0   .     S
Ti118     Er138    10.0   .     S
Er119     V102    10.0   1_655     S
Er119     Ti137    10.0   .     S
Er119     V135    10.0   .     S
Ce120     Er167    10.001   .     S
Ce120     V121    10.0   1_565     S
Ce120     Er138    10.001   .     S
Ce120     Ti123    10.0   .     S
V121     Ce120    10.0   1_545     S
V121     Ti124    10.0   .     S
V121     Ti123    10.0   1_545     S
V121     Er170    10.0   .     S
V121     Er138    10.0   1_545     S
V122     Ti124    10.0   .     S
V122     Ti123    10.0   1_545     S
V122     Er176    10.0   1_545     S
V122     Ce126    10.0   1_545     S
Ti123     Er138    10.0   .     S
Ti123     V121    10.0   1_565     S
Ti123     Er176    10.0   .     S
Ti123     V122    10.0   1_565     S
Ti123     Ce126    10.0   .     S
Ti124     Er170    10.0   .     S
Ce125     Er176    10.001   .     S
Ce125     V48    10.0   1_556     S
Ce125     V128    10.0   .     S
Ce125     Ti131    10.0   .     S
Ce126     Er176    10.001   .     S
Ce126     V122    10.0   1_565     S
Ce126     V129    10.0   .     S
Ce126     Er167    10.001   .     S
Ce126     Ti131    10.0   .     S
Ce127     Er180    10.001   .     S
Ce127     V44    10.0   1_556     S
Ce127     V128    10.0   .     S
Ce127     Er181    10.001   .     S
Ce127     Ti130    10.0   .     S
V128     Ti131    10.0   .     S
V128     Ti130    10.0   .     S
V128     Er181    10.0   .     S
V129     Ti131    10.0   .     S
V129     Ti130    10.0   .     S
V129     Er167    10.0   .     S
V129     Er189    10.0   .     S
V129     Ce132    10.0   .     S
Ti130     Er181    10.0   .     S
Ti130     Er189    10.0   .     S
Ti130     Ce132    10.0   .     S
Ti131     Er167    10.0   .     S
Ce132     Er189    10.001   .     S
Ce132     V134    10.0   1_565     S
Ce132     Er180    10.001   .     S
Ce132     Ti136    10.0   .     S
Ce133     V135    10.0   1_565     S
Ce133     V139    10.0   .     S
Ce133     Er178    10.001   .     S
Ce133     Er189    10.001   .     S
Ce133     Ti141    10.0   .     S
Ce133     Ti136    10.0   .     S
V134     Ce132    10.0   1_545     S
V134     Ti137    10.0   .     S
V134     Ti136    10.0   1_545     S
V134     Er165    10.0   .     S
V134     Er180    10.0   1_545     S
V135     Ce133    10.0   1_545     S
V135     Ti137    10.0   .     S
V135     Ti136    10.0   1_545     S
V135     Er178    10.0   1_545     S
Ti136     Er180    10.0   .     S
Ti136     V134    10.0   1_565     S
Ti136     Er178    10.0   .     S
Ti136     V135    10.0   1_565     S
Ti137     Er165    10.0   .     S
Er138     V121    10.0   1_565     S
V139     Ti142    10.0   .     S
V139     Ti141    10.0   .     S
V139     Er189    10.0   .     S
V140     Ti141    10.0   .     S
V140     Ti142    10.0   .     S
V140     Er163    10.0   .     S
V140     Er185    10.0   .     S
V140     Ce143    10.0   .     S
Ti141     Er189    10.0   .     S
Ti141     Er185    10.0   .     S
Ti142     Er163    10.0   .     S
Ti142     Ce143    10.0   .     S
Ce143     Er163    10.001   .     S
Ce143     V145    10.0   1_655     S
Ce143     Er175    10.001   .     S
Ce143     Ti146    10.0   .     S
V144     Ti147    10.0   .     S
V144     Ti146    10.0   1_455     S
V144     Er172    10.0   .     S
V144     Er164    10.0   1_455     S
V144     Ce148    10.0   1_455     S
V145     Ce143    10.0   1_455     S
V145     Ti147    10.0   .     S
V145     Ti146    10.0   1_455     S
V145     Er175    10.0   1_455     S
Ti146     Er164    10.0   .     S
Ti146     V144    10.0   1_655     S
Ti146     Er175    10.0   .     S
Ti146     V145    10.0   1_655     S
Ti146     Ce148    10.0   .     S
Ti147     Er172    10.0   .     S
Ce148     Er164    10.001   .     S
Ce148     V151    10.0   .     S
Ce148     V144    10.0   1_655     S
Ce148     Er163    10.001   .     S
Ce148     Ti153    10.0   .     S
Ce149     Er162    10.001   .     S
Ce149     V152    10.0   .     S
Ce149     Ti154    10.0   .     S
Ce150     Er164    10.001   .     S
Ce150     V152    10.0   .     S
Ce150     Er183    10.001   .     S
Ce150     Ti153    10.0   .     S
V151     Ti153    10.0   .     S
V151     Ti154    10.0   .     S
V151     Er187    10.0   .     S
V151     Er163    10.0   .     S
V151     Ce156    10.0   .     S
V152     Ti154    10.0   .     S
V152     Ti153    10.0   .     S
V152     Er183    10.0   .     S
Ti153     Er163    10.0   .     S
Ti153     Er183    10.0   .     S
Ti154     Er187    10.0   .     S
Ti154     Ce156    10.0   .     S
Ce155     Er187    10.001   .     S
Ce155     V158    10.0   1_655     S
Ce155     Er161    10.001   .     S
Ce155     Ti159    10.0   .     S
Ce156     Er187    10.001   .     S
Ce156     V157    10.0   1_655     S
Ce156     Er162    10.001   .     S
Ce156     Ti159    10.0   .     S
V157     Ce156    10.0   1_455     S
V157     Ti160    10.0   .     S
V157     Ti159    10.0   1_455     S
V157     Er173    10.0   .     S
V157     Er162    10.0   1_455     S
V158     Ce155    10.0   1_455     S
V158     Ti160    10.0   .     S
V158     Ti159    10.0   1_455     S
V158     Er169    10.0   .     S
V158     Er161    10.0   1_455     S
Ti159     Er162    10.0   .     S
Ti159     V157    10.0   1_655     S
Ti159     Er161    10.0   .     S
Ti159     V158    10.0   1_655     S
Ti160     Er173    10.0   .     S
Ti160     Er169    10.0   .     S
Er161     V158    10.0   1_655     S
Er162     V157    10.0   1_655     S
Er164     V144    10.0   1_655     S
Er165     V75    10.0   1_556     S
Er166     V47    10.0   1_556     S
Er175     V94    10.0   1_565     S
Er175     V145    10.0   1_655     S
Er176     V48    10.0   1_556     S
Er176     V122    10.0   1_565     S
Er177     V76    10.0   1_556     S
Er177     V103    10.0   1_655     S
Er178     V116    10.0   1_655     S
Er178     V135    10.0   1_565     S
Er179     V43    10.0   1_556     S
Er179     V115    10.0   1_655     S
Er180     V44    10.0   1_556     S
Er180     V134    10.0   1_565     S
