data_kxe
_audit_creation_date              2020-02-04
_audit_creation_method            'Pymatgen'
_symmetry_space_group_name_H-M    'P1'
_symmetry_Int_Tables_number       1
loop_
_symmetry_equiv_pos_as_xyz
  x,y,z
_cell_length_a                    25.7815
_cell_length_b                    25.7815
_cell_length_c                    63.1483
_cell_angle_alpha                 90.0
_cell_angle_beta                 90.0
_cell_angle_gamma                 120.0
loop_
_atom_site_label
_atom_site_type_symbol
_atom_site_fract_x
_atom_site_fract_y
_atom_site_fract_z
V1     V     0.6509   0.0754   0.7123
V2     V     0.0158   0.258   0.621
V3     V     0.5755   0.9246   0.7877
V4     V     0.7578   0.742   0.879
V5     V     0.9088   0.5913   0.4543
V6     V     0.0912   0.4087   0.5457
V7     V     0.6825   0.5913   0.9543
V8     V     0.3175   0.4087   0.0457
V9     V     0.9842   0.742   0.379
V10     V     0.3491   0.9246   0.2877
V11     V     0.2422   0.258   0.121
V12     V     0.4245   0.0754   0.2123
V13     V     0.0754   0.6509   0.7877
V14     V     0.258   0.0158   0.879
V15     V     0.742   0.7578   0.621
V16     V     0.9246   0.5755   0.7123
V17     V     0.4087   0.3175   0.4543
V18     V     0.5913   0.6825   0.5457
V19     V     0.4087   0.0912   0.9543
V20     V     0.5913   0.9088   0.0457
V21     V     0.258   0.2422   0.379
V22     V     0.0754   0.4245   0.2877
V23     V     0.9246   0.3491   0.2123
V24     V     0.742   0.9842   0.121
V25     V     0.5755   0.6509   0.2877
V26     V     0.7578   0.0158   0.379
V27     V     0.4245   0.3491   0.7123
V28     V     0.2422   0.9842   0.621
V29     V     0.6825   0.0912   0.4543
V30     V     0.3175   0.9088   0.5457
V31     V     0.6509   0.5755   0.2123
V32     V     0.0158   0.7578   0.121
V33     V     0.9088   0.3175   0.9543
V34     V     0.0912   0.6825   0.0457
V35     V     0.3491   0.4245   0.7877
V36     V     0.9842   0.2422   0.879
Er37     Er     0.6667   0.3333   0.8333
Er38     Er     0.0   0.0   0.0
Er39     Er     0.6667   0.3333   0.3333
Er40     Er     0.3333   0.6667   0.6667
Er41     Er     0.3333   0.6667   0.1667
Er42     Er     0.0   0.0   0.5
loop_
_geom_bond_atom_site_label_1
_geom_bond_atom_site_label_2
_geom_bond_distance
_geom_bond_site_symmetry_2
_ccdc_geom_bond_type
V1     V2    9.982   1_655     S
V1     Er37    10.004   .     S
V1     Er40    10.005   1_545     S
V2     V1    9.982   1_455     S
V2     Er42    10.004   .     S
V2     Er40    10.005   .     S
V3     V4    9.982   .     S
V3     Er37    10.005   1_565     S
V3     Er40    10.004   .     S
V4     Er38    10.004   1_666     S
V4     Er37    10.005   .     S
V5     V6    9.982   1_655     S
V5     Er39    10.004   .     S
V5     Er42    10.005   1_665     S
V6     V5    9.982   1_455     S
V6     Er42    10.005   .     S
V6     Er40    10.004   .     S
V7     V8    9.982   1_556     S
V7     Er38    10.005   1_666     S
V7     Er37    10.004   .     S
V8     V7    9.982   1_554     S
V8     Er41    10.004   .     S
V8     Er38    10.005   .     S
V9     V10    9.982   1_655     S
V9     Er39    10.005   .     S
V9     Er42    10.004   1_665     S
V10     V9    9.982   1_455     S
V10     Er41    10.004   .     S
V10     Er39    10.005   1_565     S
V11     V12    9.982   .     S
V11     Er41    10.005   .     S
V11     Er38    10.004   .     S
V12     Er41    10.005   1_545     S
V12     Er39    10.004   .     S
V13     V14    9.982   1_565     S
V13     Er40    10.004   .     S
V13     Er37    10.005   1_455     S
V14     V13    9.982   1_545     S
V14     Er38    10.004   1_556     S
V14     Er37    10.005   .     S
V15     V16    9.982   .     S
V15     Er42    10.004   1_665     S
V15     Er40    10.005   .     S
V16     Er40    10.005   1_655     S
V16     Er37    10.004   .     S
V17     V18    9.982   .     S
V17     Er39    10.004   .     S
V17     Er42    10.005   .     S
V18     Er42    10.005   1_665     S
V18     Er40    10.004   .     S
V19     V20    9.982   1_546     S
V19     Er38    10.005   1_556     S
V19     Er37    10.004   .     S
V20     V19    9.982   1_564     S
V20     Er41    10.004   .     S
V20     Er38    10.005   1_665     S
V21     V22    9.982   .     S
V21     Er39    10.005   .     S
V21     Er42    10.004   .     S
V22     Er41    10.004   .     S
V22     Er39    10.005   1_455     S
V23     V24    9.982   1_545     S
V23     Er41    10.005   1_655     S
V23     Er39    10.004   .     S
V24     V23    9.982   1_565     S
V24     Er41    10.005   .     S
V24     Er38    10.004   1_665     S
V25     V26    9.982   1_565     S
V25     Er41    10.004   .     S
V25     Er39    10.005   .     S
V26     V25    9.982   1_545     S
V26     Er42    10.004   1_655     S
V26     Er39    10.005   .     S
V27     V28    9.982   1_545     S
V27     Er37    10.004   .     S
V27     Er40    10.005   .     S
V28     V27    9.982   1_565     S
V28     Er42    10.004   1_565     S
V28     Er40    10.005   .     S
V29     V30    9.982   1_545     S
V29     Er42    10.005   1_655     S
V29     Er39    10.004   .     S
V30     V29    9.982   1_565     S
V30     Er42    10.005   1_565     S
V30     Er40    10.004   .     S
V31     V32    9.982   1_655     S
V31     Er41    10.005   .     S
V31     Er39    10.004   .     S
V32     V31    9.982   1_455     S
V32     Er38    10.004   1_565     S
V32     Er41    10.005   .     S
V33     V34    9.982   1_656     S
V33     Er37    10.004   .     S
V33     Er38    10.005   1_656     S
V34     V33    9.982   1_454     S
V34     Er38    10.005   1_565     S
V34     Er41    10.004   .     S
V35     V36    9.982   1_455     S
V35     Er37    10.005   .     S
V35     Er40    10.004   .     S
V36     V35    9.982   1_655     S
V36     Er37    10.005   .     S
V36     Er38    10.004   1_656     S
Er37     V3    10.005   1_545     S
Er37     V13    10.005   1_655     S
Er38     V7    10.005   1_444     S
Er38     V4    10.004   1_444     S
Er38     V19    10.005   1_554     S
Er38     V14    10.004   1_554     S
Er38     V20    10.005   1_445     S
Er38     V24    10.004   1_445     S
Er38     V34    10.005   1_545     S
Er38     V32    10.004   1_545     S
Er38     V33    10.005   1_454     S
Er38     V36    10.004   1_454     S
Er39     V10    10.005   1_545     S
Er39     V22    10.005   1_655     S
Er40     V1    10.005   1_565     S
Er40     V16    10.005   1_455     S
Er41     V12    10.005   1_565     S
Er41     V23    10.005   1_455     S
Er42     V5    10.005   1_445     S
Er42     V9    10.004   1_445     S
Er42     V18    10.005   1_445     S
Er42     V15    10.004   1_445     S
Er42     V29    10.005   1_455     S
Er42     V26    10.004   1_455     S
Er42     V30    10.005   1_545     S
Er42     V28    10.004   1_545     S
