data_lcs
_audit_creation_date              2020-02-04
_audit_creation_method            'Pymatgen'
_symmetry_space_group_name_H-M    'P1'
_symmetry_Int_Tables_number       1
loop_
_symmetry_equiv_pos_as_xyz
  x,y,z
_cell_length_a                    32.6599
_cell_length_b                    32.6599
_cell_length_c                    32.6599
_cell_angle_alpha                 90.0
_cell_angle_beta                 90.0
_cell_angle_gamma                 90.0
loop_
_atom_site_label
_atom_site_type_symbol
_atom_site_fract_x
_atom_site_fract_y
_atom_site_fract_z
V1     V     0.25   0.625   0.5
V2     V     0.75   0.875   0.5
V3     V     0.0   0.75   0.625
V4     V     0.5   0.75   0.875
V5     V     0.625   0.0   0.75
V6     V     0.75   0.625   0.0
V7     V     0.875   0.5   0.75
V8     V     0.625   0.5   0.25
V9     V     0.5   0.25   0.125
V10     V     0.375   0.0   0.25
V11     V     0.5   0.75   0.375
V12     V     0.75   0.125   0.0
V13     V     0.0   0.25   0.875
V14     V     0.25   0.875   0.0
V15     V     0.125   0.0   0.75
V16     V     0.875   0.0   0.25
V17     V     0.0   0.75   0.125
V18     V     0.125   0.5   0.25
V19     V     0.375   0.5   0.75
V20     V     0.25   0.375   0.0
V21     V     0.25   0.125   0.5
V22     V     0.0   0.25   0.375
V23     V     0.75   0.375   0.5
V24     V     0.5   0.25   0.625
loop_
_geom_bond_atom_site_label_1
_geom_bond_atom_site_label_2
_geom_bond_distance
_geom_bond_site_symmetry_2
_ccdc_geom_bond_type
V1     V19    10.0   .     S
V1     V18    10.0   .     S
V1     V3    10.0   .     S
V1     V11    10.0   .     S
V2     V16    10.0   1_565     S
V2     V3    10.0   1_655     S
V2     V11    10.0   .     S
V2     V5    10.0   1_565     S
V3     V2    10.0   1_455     S
V3     V15    10.0   1_565     S
V3     V7    10.0   1_455     S
V4     V14    10.0   1_556     S
V4     V5    10.0   1_565     S
V4     V19    10.0   .     S
V4     V6    10.0   1_556     S
V5     V4    10.0   1_545     S
V5     V12    10.0   1_556     S
V5     V24    10.0   .     S
V5     V2    10.0   1_545     S
V6     V7    10.0   1_554     S
V6     V17    10.0   1_655     S
V6     V8    10.0   .     S
V6     V4    10.0   1_554     S
V7     V6    10.0   1_556     S
V7     V13    10.0   1_655     S
V7     V23    10.0   .     S
V7     V3    10.0   1_655     S
V8     V9    10.0   .     S
V8     V11    10.0   .     S
V8     V23    10.0   .     S
V9     V12    10.0   .     S
V9     V20    10.0   .     S
V9     V10    10.0   .     S
V10     V11    10.0   1_545     S
V10     V14    10.0   1_545     S
V10     V21    10.0   .     S
V11     V10    10.0   1_565     S
V12     V5    10.0   1_554     S
V12     V13    10.0   1_654     S
V12     V16    10.0   .     S
V13     V7    10.0   1_455     S
V13     V12    10.0   1_456     S
V13     V15    10.0   .     S
V13     V20    10.0   1_556     S
V14     V4    10.0   1_554     S
V14     V15    10.0   1_564     S
V14     V17    10.0   .     S
V14     V10    10.0   1_565     S
V15     V3    10.0   1_545     S
V15     V14    10.0   1_546     S
V15     V21    10.0   .     S
V16     V2    10.0   1_545     S
V16     V17    10.0   1_645     S
V16     V22    10.0   1_655     S
V17     V6    10.0   1_455     S
V17     V16    10.0   1_465     S
V17     V18    10.0   .     S
V18     V22    10.0   .     S
V18     V20    10.0   .     S
V19     V20    10.0   1_556     S
V19     V24    10.0   .     S
V20     V13    10.0   1_554     S
V20     V19    10.0   1_554     S
V21     V22    10.0   .     S
V21     V24    10.0   .     S
V22     V16    10.0   1_455     S
V22     V23    10.0   1_455     S
V23     V22    10.0   1_655     S
V23     V24    10.0   .     S
