data_lcya
_audit_creation_date              2020-02-04
_audit_creation_method            'Pymatgen'
_symmetry_space_group_name_H-M    'P1'
_symmetry_Int_Tables_number       1
loop_
_symmetry_equiv_pos_as_xyz
  x,y,z
_cell_length_a                    40.3559
_cell_length_b                    40.3559
_cell_length_c                    40.3559
_cell_angle_alpha                 90.0
_cell_angle_beta                 90.0
_cell_angle_gamma                 90.0
loop_
_atom_site_label
_atom_site_type_symbol
_atom_site_fract_x
_atom_site_fract_y
_atom_site_fract_z
V1     V     0.2827   0.7173   0.9158
V2     V     0.0842   0.7827   0.7827
V3     V     0.2173   0.5842   0.7173
V4     V     0.6658   0.9673   0.9673
V5     V     0.5327   0.0327   0.1658
V6     V     0.4673   0.8342   0.0327
V7     V     0.4158   0.2173   0.2827
V8     V     0.2173   0.2827   0.4158
V9     V     0.2827   0.4158   0.2173
V10     V     0.7173   0.9158   0.2827
V11     V     0.7827   0.7827   0.0842
V12     V     0.5842   0.7173   0.2173
V13     V     0.9673   0.9673   0.6658
V14     V     0.0327   0.1658   0.5327
V15     V     0.8342   0.0327   0.4673
V16     V     0.9673   0.6658   0.9673
V17     V     0.1658   0.5327   0.0327
V18     V     0.0327   0.4673   0.8342
V19     V     0.9158   0.2827   0.7173
V20     V     0.7827   0.0842   0.7827
V21     V     0.7173   0.2173   0.5842
V22     V     0.4673   0.5327   0.3342
V23     V     0.3342   0.4673   0.5327
V24     V     0.5327   0.3342   0.4673
loop_
_geom_bond_atom_site_label_1
_geom_bond_atom_site_label_2
_geom_bond_distance
_geom_bond_site_symmetry_2
_ccdc_geom_bond_type
V1     V3    10.0   .     S
V1     V2    10.0   .     S
V1     V17    10.0   1_556     S
V1     V6    10.0   1_556     S
V2     V3    10.0   .     S
V2     V16    10.0   1_455     S
V2     V13    10.0   1_455     S
V3     V23    10.0   .     S
V3     V18    10.0   .     S
V4     V6    10.0   1_556     S
V4     V5    10.0   1_566     S
V4     V11    10.0   1_556     S
V4     V20    10.0   1_565     S
V5     V4    10.0   1_544     S
V5     V6    10.0   1_545     S
V5     V10    10.0   1_545     S
V5     V7    10.0   .     S
V6     V4    10.0   1_554     S
V6     V5    10.0   1_565     S
V6     V1    10.0   1_554     S
V6     V12    10.0   .     S
V7     V8    10.0   .     S
V7     V9    10.0   .     S
V7     V24    10.0   .     S
V8     V9    10.0   .     S
V8     V23    10.0   .     S
V8     V14    10.0   .     S
V9     V22    10.0   .     S
V9     V17    10.0   .     S
V10     V12    10.0   .     S
V10     V11    10.0   .     S
V10     V5    10.0   1_565     S
V10     V15    10.0   1_565     S
V11     V12    10.0   .     S
V11     V4    10.0   1_554     S
V11     V16    10.0   1_554     S
V12     V22    10.0   .     S
V13     V2    10.0   1_655     S
V13     V15    10.0   1_565     S
V13     V14    10.0   1_665     S
V13     V20    10.0   1_565     S
V14     V13    10.0   1_445     S
V14     V15    10.0   1_455     S
V14     V19    10.0   1_455     S
V15     V13    10.0   1_545     S
V15     V14    10.0   1_655     S
V15     V10    10.0   1_545     S
V15     V21    10.0   .     S
V16     V2    10.0   1_655     S
V16     V11    10.0   1_556     S
V16     V18    10.0   1_655     S
V16     V17    10.0   1_656     S
V17     V1    10.0   1_554     S
V17     V16    10.0   1_454     S
V17     V18    10.0   1_554     S
V18     V16    10.0   1_455     S
V18     V17    10.0   1_556     S
V18     V19    10.0   1_455     S
V19     V18    10.0   1_655     S
V19     V21    10.0   .     S
V19     V20    10.0   .     S
V19     V14    10.0   1_655     S
V20     V13    10.0   1_545     S
V20     V21    10.0   .     S
V20     V4    10.0   1_545     S
V21     V24    10.0   .     S
V22     V23    10.0   .     S
V22     V24    10.0   .     S
V23     V24    10.0   .     S
