data_ltl
_audit_creation_date              2020-02-04
_audit_creation_method            'Pymatgen'
_symmetry_space_group_name_H-M    'P1'
_symmetry_Int_Tables_number       1
loop_
_symmetry_equiv_pos_as_xyz
  x,y,z
_cell_length_a                    57.8972
_cell_length_b                    57.8972
_cell_length_c                    25.838
_cell_angle_alpha                 90.0
_cell_angle_beta                 90.0
_cell_angle_gamma                 120.0
loop_
_atom_site_label
_atom_site_type_symbol
_atom_site_fract_x
_atom_site_fract_y
_atom_site_fract_z
V1     V     0.1606   0.6667   0.3065
V2     V     0.1606   0.6667   0.6935
V3     V     0.1606   0.494   0.6935
V4     V     0.1606   0.494   0.3065
V5     V     0.506   0.6667   0.6935
V6     V     0.3333   0.494   0.6935
V7     V     0.506   0.6667   0.3065
V8     V     0.3333   0.494   0.3065
V9     V     0.3333   0.8394   0.6935
V10     V     0.506   0.8394   0.6935
V11     V     0.3333   0.8394   0.3065
V12     V     0.506   0.8394   0.3065
V13     V     0.8394   0.506   0.6935
V14     V     0.8394   0.3333   0.6935
V15     V     0.8394   0.506   0.3065
V16     V     0.8394   0.3333   0.3065
V17     V     0.6667   0.506   0.3065
V18     V     0.494   0.3333   0.3065
V19     V     0.6667   0.506   0.6935
V20     V     0.494   0.3333   0.6935
V21     V     0.6667   0.1606   0.6935
V22     V     0.6667   0.1606   0.3065
V23     V     0.494   0.1606   0.3065
V24     V     0.494   0.1606   0.6935
Er25     Er     0.6278   0.9003   0.0
Er26     Er     0.6278   0.7276   0.0
Er27     Er     0.9003   0.6278   0.0
Er28     Er     0.7276   0.6278   0.0
Er29     Er     0.2724   0.9003   0.0
Er30     Er     0.0997   0.7276   0.0
Er31     Er     0.9003   0.2724   0.0
Er32     Er     0.7276   0.0997   0.0
Er33     Er     0.3722   0.2724   0.0
Er34     Er     0.3722   0.0997   0.0
Er35     Er     0.2724   0.3722   0.0
Er36     Er     0.0997   0.3722   0.0
loop_
_geom_bond_atom_site_label_1
_geom_bond_atom_site_label_2
_geom_bond_distance
_geom_bond_site_symmetry_2
_ccdc_geom_bond_type
V1     V11    10.001   .     S
V1     V4    9.999   .     S
V1     V2    10.0   .     S
V1     Er30    10.0   .     S
V2     V9    10.001   .     S
V2     V3    9.999   .     S
V2     Er30    10.0   1_556     S
V3     V4    10.0   .     S
V3     V6    10.001   .     S
V3     Er36    10.0   1_556     S
V4     V8    10.001   .     S
V4     Er36    10.0   .     S
V5     V6    9.999   .     S
V5     V7    10.0   .     S
V5     V10    10.001   .     S
V5     Er26    10.0   1_556     S
V6     V8    10.0   .     S
V6     Er35    10.0   1_556     S
V7     V8    9.999   .     S
V7     V12    10.001   .     S
V7     Er26    10.0   .     S
V8     Er35    10.0   .     S
V9     V10    9.999   .     S
V9     V11    10.0   .     S
V9     Er29    10.0   1_556     S
V10     V12    10.0   .     S
V10     Er25    10.0   1_556     S
V11     V12    9.999   .     S
V11     Er29    10.0   .     S
V12     Er25    10.0   .     S
V13     V14    9.999   .     S
V13     V15    10.0   .     S
V13     V19    10.001   .     S
V13     Er27    10.0   1_556     S
V14     V21    10.001   .     S
V14     V16    10.0   .     S
V14     Er31    10.0   1_556     S
V15     V16    9.999   .     S
V15     V17    10.001   .     S
V15     Er27    10.0   .     S
V16     V22    10.001   .     S
V16     Er31    10.0   .     S
V17     V18    9.999   .     S
V17     V19    10.0   .     S
V17     Er28    10.0   .     S
V18     V23    10.001   .     S
V18     V20    10.0   .     S
V18     Er33    10.0   .     S
V19     V20    9.999   .     S
V19     Er28    10.0   1_556     S
V20     V24    10.001   .     S
V20     Er33    10.0   1_556     S
V21     V24    9.999   .     S
V21     V22    10.0   .     S
V21     Er32    10.0   1_556     S
V22     V23    9.999   .     S
V22     Er32    10.0   .     S
V23     V24    10.0   .     S
V23     Er34    10.0   .     S
V24     Er34    10.0   1_556     S
Er25     V10    10.0   1_554     S
Er25     Er26    10.0   .     S
Er25     Er32    10.0   1_565     S
Er26     V5    10.0   1_554     S
Er26     Er28    10.0   .     S
Er27     V13    10.0   1_554     S
Er27     Er28    10.0   .     S
Er27     Er30    10.0   1_655     S
Er28     V19    10.0   1_554     S
Er29     V9    10.0   1_554     S
Er29     Er30    10.0   .     S
Er29     Er34    10.0   1_565     S
Er30     V2    10.0   1_554     S
Er30     Er27    10.0   1_455     S
Er31     V14    10.0   1_554     S
Er31     Er32    10.0   .     S
Er31     Er36    10.0   1_655     S
Er32     V21    10.0   1_554     S
Er32     Er25    10.0   1_545     S
Er33     V20    10.0   1_554     S
Er33     Er34    10.0   .     S
Er33     Er35    10.0   .     S
Er34     V24    10.0   1_554     S
Er34     Er29    10.0   1_545     S
Er35     V6    10.0   1_554     S
Er35     Er36    10.0   .     S
Er36     Er31    10.0   1_455     S
Er36     V3    10.0   1_554     S
