data_ltw
_audit_creation_date              2020-02-04
_audit_creation_method            'Pymatgen'
_symmetry_space_group_name_H-M    'P1'
_symmetry_Int_Tables_number       1
loop_
_symmetry_equiv_pos_as_xyz
  x,y,z
_cell_length_a                    39.8304
_cell_length_b                    39.8304
_cell_length_c                    39.8304
_cell_angle_alpha                 90.0
_cell_angle_beta                 90.0
_cell_angle_gamma                 90.0
loop_
_atom_site_label
_atom_site_type_symbol
_atom_site_fract_x
_atom_site_fract_y
_atom_site_fract_z
Er1     Er     0.0594   0.5593   0.875
Er2     Er     0.9406   0.4407   0.875
V3     V     0.7084   0.3792   0.8213
V4     V     0.2916   0.6208   0.8213
Er5     Er     0.5593   0.125   0.9406
Er6     Er     0.4407   0.125   0.0594
V7     V     0.6208   0.1787   0.7084
V8     V     0.3792   0.1787   0.2916
Er9     Er     0.5593   0.875   0.0594
Er10     Er     0.4407   0.875   0.9406
V11     V     0.3792   0.8213   0.7084
V12     V     0.6208   0.8213   0.2916
Er13     Er     0.125   0.9406   0.5593
Er14     Er     0.125   0.0594   0.4407
V15     V     0.1787   0.7084   0.6208
V16     V     0.1787   0.2916   0.3792
Er17     Er     0.875   0.0594   0.5593
Er18     Er     0.875   0.9406   0.4407
V19     V     0.8213   0.7084   0.3792
V20     V     0.8213   0.2916   0.6208
Er21     Er     0.9406   0.5593   0.125
Er22     Er     0.0594   0.4407   0.125
V23     V     0.7084   0.6208   0.1787
V24     V     0.2916   0.3792   0.1787
Er25     Er     0.375   0.9407   0.4406
Er26     Er     0.375   0.0593   0.5594
V27     V     0.3213   0.8792   0.2084
V28     V     0.3213   0.1208   0.7916
Er29     Er     0.4406   0.375   0.9407
Er30     Er     0.5594   0.375   0.0593
V31     V     0.2084   0.3213   0.8792
V32     V     0.7916   0.3213   0.1208
Er33     Er     0.9407   0.4406   0.375
Er34     Er     0.0593   0.5594   0.375
V35     V     0.8792   0.2084   0.3213
V36     V     0.1208   0.7916   0.3213
Er37     Er     0.9407   0.5594   0.625
Er38     Er     0.0593   0.4406   0.625
V39     V     0.1208   0.2084   0.6787
V40     V     0.8792   0.7916   0.6787
Er41     Er     0.5594   0.625   0.9407
Er42     Er     0.4406   0.625   0.0593
V43     V     0.2084   0.6787   0.1208
V44     V     0.7916   0.6787   0.8792
Er45     Er     0.625   0.9407   0.5594
Er46     Er     0.625   0.0593   0.4406
V47     V     0.6787   0.1208   0.2084
V48     V     0.6787   0.8792   0.7916
loop_
_geom_bond_atom_site_label_1
_geom_bond_atom_site_label_2
_geom_bond_distance
_geom_bond_site_symmetry_2
_ccdc_geom_bond_type
Er1     Er38    11.024   .     S
Er1     Er37    11.024   1_455     S
Er1     Er21    11.027   1_456     S
Er1     Er22    11.023   1_556     S
Er1     V4    9.802   .     S
Er1     Er2    6.691   1_455     S
Er2     Er38    11.024   1_655     S
Er2     Er37    11.024   .     S
Er2     Er21    11.023   1_556     S
Er2     Er22    11.027   1_656     S
Er2     V3    9.802   .     S
Er2     Er1    6.691   1_655     S
V3     V7    9.804   .     S
V3     V20    9.804   .     S
V4     V11    9.804   .     S
V4     V15    9.804   .     S
Er5     Er9    11.027   1_546     S
Er5     Er10    11.023   1_545     S
Er5     Er30    11.024   1_556     S
Er5     Er29    11.024   .     S
Er5     V7    9.802   .     S
Er5     Er6    6.691   1_556     S
Er6     Er9    11.023   1_545     S
Er6     Er10    11.027   1_544     S
Er6     Er29    11.024   1_554     S
Er6     Er30    11.024   .     S
Er6     V8    9.802   .     S
Er6     Er5    6.691   1_554     S
V7     V20    9.804   .     S
V8     V16    9.804   .     S
V8     V24    9.804   .     S
Er9     Er42    11.024   .     S
Er9     Er41    11.024   1_554     S
Er9     Er5    11.027   1_564     S
Er9     Er6    11.023   1_565     S
Er9     V12    9.802   .     S
Er9     Er10    6.691   1_554     S
Er10     Er42    11.024   1_556     S
Er10     Er41    11.024   .     S
Er10     Er5    11.023   1_565     S
Er10     Er6    11.027   1_566     S
Er10     V11    9.802   .     S
Er10     Er9    6.691   1_556     S
V11     V15    9.804   .     S
V12     V19    9.804   .     S
V12     V23    9.804   .     S
Er13     Er17    11.027   1_465     S
Er13     Er18    11.023   1_455     S
Er13     Er26    11.024   1_565     S
Er13     Er25    11.024   .     S
Er13     V15    9.802   .     S
Er13     Er14    6.691   1_565     S
Er14     Er17    11.023   1_455     S
Er14     Er18    11.027   1_445     S
Er14     Er26    11.024   .     S
Er14     Er25    11.024   1_545     S
Er14     V16    9.802   .     S
Er14     Er13    6.691   1_545     S
V16     V24    9.804   .     S
Er17     Er46    11.024   .     S
Er17     Er45    11.024   1_545     S
Er17     Er13    11.027   1_645     S
Er17     Er14    11.023   1_655     S
Er17     V20    9.802   .     S
Er17     Er18    6.691   1_545     S
Er18     Er46    11.024   1_565     S
Er18     Er45    11.024   .     S
Er18     Er13    11.023   1_655     S
Er18     Er14    11.027   1_665     S
Er18     V19    9.802   .     S
Er18     Er17    6.691   1_565     S
V19     V23    9.804   .     S
Er21     Er1    11.027   1_654     S
Er21     Er2    11.023   1_554     S
Er21     Er34    11.024   1_655     S
Er21     Er33    11.024   .     S
Er21     V23    9.802   .     S
Er21     Er22    6.691   1_655     S
Er22     Er1    11.023   1_554     S
Er22     Er2    11.027   1_454     S
Er22     Er34    11.024   .     S
Er22     Er33    11.024   1_455     S
Er22     V24    9.802   .     S
Er22     Er21    6.691   1_455     S
Er25     Er14    11.024   1_565     S
Er25     Er45    11.027   .     S
Er25     Er46    11.023   1_565     S
Er25     V27    9.802   .     S
Er25     Er26    6.691   1_565     S
Er26     Er13    11.024   1_545     S
Er26     Er45    11.023   1_545     S
Er26     Er46    11.027   .     S
Er26     V28    9.802   .     S
Er26     Er25    6.691   1_545     S
V27     V43    9.804   .     S
V27     V36    9.804   .     S
V28     V31    9.804   .     S
V28     V39    9.804   .     S
Er29     Er6    11.024   1_556     S
Er29     Er41    11.027   .     S
Er29     Er42    11.023   1_556     S
Er29     V31    9.802   .     S
Er29     Er30    6.691   1_556     S
Er30     Er5    11.024   1_554     S
Er30     Er41    11.023   1_554     S
Er30     Er42    11.027   .     S
Er30     V32    9.802   .     S
Er30     Er29    6.691   1_554     S
V31     V39    9.804   .     S
V32     V35    9.804   .     S
V32     V47    9.804   .     S
Er33     Er22    11.024   1_655     S
Er33     Er37    11.027   .     S
Er33     Er38    11.023   1_655     S
Er33     V35    9.802   .     S
Er33     Er34    6.691   1_655     S
Er34     Er21    11.024   1_455     S
Er34     Er37    11.023   1_455     S
Er34     Er38    11.027   .     S
Er34     V36    9.802   .     S
Er34     Er33    6.691   1_455     S
V35     V47    9.804   .     S
V36     V43    9.804   .     S
Er37     Er1    11.024   1_655     S
Er37     Er34    11.023   1_655     S
Er37     V40    9.802   .     S
Er37     Er38    6.691   1_655     S
Er38     Er2    11.024   1_455     S
Er38     Er33    11.023   1_455     S
Er38     V39    9.802   .     S
Er38     Er37    6.691   1_455     S
V40     V48    9.804   .     S
V40     V44    9.804   .     S
Er41     Er9    11.024   1_556     S
Er41     Er30    11.023   1_556     S
Er41     V44    9.802   .     S
Er41     Er42    6.691   1_556     S
Er42     Er10    11.024   1_554     S
Er42     Er29    11.023   1_554     S
Er42     V43    9.802   .     S
Er42     Er41    6.691   1_554     S
V44     V48    9.804   .     S
Er45     Er17    11.024   1_565     S
Er45     Er26    11.023   1_565     S
Er45     V48    9.802   .     S
Er45     Er46    6.691   1_565     S
Er46     Er18    11.024   1_545     S
Er46     Er25    11.023   1_545     S
Er46     V47    9.802   .     S
Er46     Er45    6.691   1_545     S
