data_lwh
_audit_creation_date              2020-02-04
_audit_creation_method            'Pymatgen'
_symmetry_space_group_name_H-M    'P1'
_symmetry_Int_Tables_number       1
loop_
_symmetry_equiv_pos_as_xyz
  x,y,z
_cell_length_a                    48.2843
_cell_length_b                    48.2843
_cell_length_c                    48.2843
_cell_angle_alpha                 90.0
_cell_angle_beta                 90.0
_cell_angle_gamma                 90.0
loop_
_atom_site_label
_atom_site_type_symbol
_atom_site_fract_x
_atom_site_fract_y
_atom_site_fract_z
Er1     Er     0.5   0.1034   0.5
Er2     Er     0.1034   0.5   0.5
Er3     Er     0.5   0.8966   0.5
Er4     Er     0.8966   0.5   0.5
Er5     Er     0.5   0.5   0.1034
Er6     Er     0.5   0.5   0.8966
Er7     Er     0.0   0.6034   0.0
Er8     Er     0.6034   0.0   0.0
Er9     Er     0.0   0.3966   0.0
Er10     Er     0.3966   0.0   0.0
Er11     Er     0.0   0.0   0.6034
Er12     Er     0.0   0.0   0.3966
Ti13     Ti     0.6464   0.8964   0.6464
Ti14     Ti     0.6464   0.1036   0.6464
Ti15     Ti     0.8964   0.6464   0.6464
Ti16     Ti     0.1036   0.6464   0.6464
Ti17     Ti     0.6464   0.6464   0.8964
Ti18     Ti     0.6464   0.6464   0.1036
Ti19     Ti     0.8964   0.6464   0.3535
Ti20     Ti     0.1036   0.6464   0.3535
Ti21     Ti     0.6464   0.8964   0.3535
Ti22     Ti     0.6464   0.1036   0.3535
Ti23     Ti     0.8964   0.3535   0.6464
Ti24     Ti     0.1036   0.3535   0.6464
Ti25     Ti     0.3535   0.8964   0.6464
Ti26     Ti     0.3535   0.1036   0.6464
Ti27     Ti     0.6464   0.3535   0.8964
Ti28     Ti     0.6464   0.3535   0.1036
Ti29     Ti     0.3535   0.6464   0.8964
Ti30     Ti     0.3535   0.6464   0.1036
Ti31     Ti     0.3535   0.8964   0.3535
Ti32     Ti     0.3535   0.1036   0.3535
Ti33     Ti     0.8964   0.3535   0.3535
Ti34     Ti     0.1036   0.3535   0.3535
Ti35     Ti     0.3535   0.3535   0.8964
Ti36     Ti     0.3535   0.3535   0.1036
Ti37     Ti     0.1464   0.3965   0.1464
Ti38     Ti     0.1464   0.6036   0.1464
Ti39     Ti     0.3965   0.1464   0.1464
Ti40     Ti     0.6036   0.1464   0.1464
Ti41     Ti     0.3965   0.1464   0.8536
Ti42     Ti     0.6036   0.1464   0.8536
Ti43     Ti     0.3965   0.8536   0.1464
Ti44     Ti     0.6036   0.8536   0.1464
Ti45     Ti     0.8536   0.3965   0.1464
Ti46     Ti     0.8536   0.6036   0.1464
Ti47     Ti     0.8536   0.1464   0.3965
Ti48     Ti     0.8536   0.1464   0.6036
Ti49     Ti     0.1464   0.8536   0.3965
Ti50     Ti     0.1464   0.8536   0.6036
Ti51     Ti     0.8536   0.3965   0.8536
Ti52     Ti     0.8536   0.6036   0.8536
Ti53     Ti     0.8536   0.8536   0.3965
Ti54     Ti     0.8536   0.8536   0.6036
Ti55     Ti     0.3965   0.8536   0.8536
Ti56     Ti     0.6036   0.8536   0.8536
V57     V     0.25   0.75   0.75
V58     V     0.75   0.75   0.75
V59     V     0.75   0.75   0.25
V60     V     0.75   0.25   0.75
Ti61     Ti     0.1464   0.3965   0.8536
Ti62     Ti     0.1464   0.6036   0.8536
V63     V     0.25   0.25   0.75
V64     V     0.25   0.75   0.25
V65     V     0.75   0.25   0.25
Ti66     Ti     0.1464   0.1464   0.3965
Ti67     Ti     0.1464   0.1464   0.6036
V68     V     0.25   0.25   0.25
loop_
_geom_bond_atom_site_label_1
_geom_bond_atom_site_label_2
_geom_bond_distance
_geom_bond_site_symmetry_2
_ccdc_geom_bond_type
Er1     Ti14    10.0   .     S
Er1     Ti22    10.0   .     S
Er1     Ti26    10.0   .     S
Er1     Ti32    10.0   .     S
Er2     Ti16    10.0   .     S
Er2     Ti24    10.0   .     S
Er2     Ti20    10.0   .     S
Er2     Ti34    10.0   .     S
Er3     Ti13    10.0   .     S
Er3     Ti25    10.0   .     S
Er3     Ti21    10.0   .     S
Er3     Ti31    10.0   .     S
Er4     Ti15    10.0   .     S
Er4     Ti19    10.0   .     S
Er4     Ti23    10.0   .     S
Er4     Ti33    10.0   .     S
Er5     Ti18    10.0   .     S
Er5     Ti28    10.0   .     S
Er5     Ti30    10.0   .     S
Er5     Ti36    10.0   .     S
Er6     Ti17    10.0   .     S
Er6     Ti29    10.0   .     S
Er6     Ti27    10.0   .     S
Er6     Ti35    10.0   .     S
Er7     Ti38    10.0   .     S
Er7     Ti62    10.0   1_554     S
Er7     Ti46    10.0   1_455     S
Er7     Ti52    10.0   1_454     S
Er8     Ti40    10.0   .     S
Er8     Ti44    10.0   1_545     S
Er8     Ti42    10.0   1_554     S
Er8     Ti56    10.0   1_544     S
Er9     Ti37    10.0   .     S
Er9     Ti45    10.0   1_455     S
Er9     Ti61    10.0   1_554     S
Er9     Ti51    10.0   1_454     S
Er10     Ti39    10.0   .     S
Er10     Ti41    10.0   1_554     S
Er10     Ti43    10.0   1_545     S
Er10     Ti55    10.0   1_544     S
Er11     Ti67    10.0   .     S
Er11     Ti50    10.0   1_545     S
Er11     Ti48    10.0   1_455     S
Er11     Ti54    10.0   1_445     S
Er12     Ti66    10.0   .     S
Er12     Ti47    10.0   1_455     S
Er12     Ti49    10.0   1_545     S
Er12     Ti53    10.0   1_445     S
Ti13     Ti14    10.0   1_565     S
Ti13     V58    10.0   .     S
Ti14     Ti13    10.0   1_545     S
Ti14     V60    10.0   .     S
Ti15     Ti16    10.0   1_655     S
Ti15     V58    10.0   .     S
Ti16     Ti15    10.0   1_455     S
Ti16     V57    10.0   .     S
Ti17     Ti18    10.0   1_556     S
Ti17     V58    10.0   .     S
Ti18     Ti17    10.0   1_554     S
Ti18     V59    10.0   .     S
Ti19     Ti20    10.0   1_655     S
Ti19     V59    10.0   .     S
Ti20     Ti19    10.0   1_455     S
Ti20     V64    10.0   .     S
Ti21     Ti22    10.0   1_565     S
Ti21     V59    10.0   .     S
Ti22     Ti21    10.0   1_545     S
Ti22     V65    10.0   .     S
Ti23     Ti24    10.0   1_655     S
Ti23     V60    10.0   .     S
Ti24     Ti23    10.0   1_455     S
Ti24     V63    10.0   .     S
Ti25     Ti26    10.0   1_565     S
Ti25     V57    10.0   .     S
Ti26     Ti25    10.0   1_545     S
Ti26     V63    10.0   .     S
Ti27     Ti28    10.0   1_556     S
Ti27     V60    10.0   .     S
Ti28     Ti27    10.0   1_554     S
Ti28     V65    10.0   .     S
Ti29     Ti30    10.0   1_556     S
Ti29     V57    10.0   .     S
Ti30     Ti29    10.0   1_554     S
Ti30     V64    10.0   .     S
Ti31     Ti32    10.0   1_565     S
Ti31     V64    10.0   .     S
Ti32     Ti31    10.0   1_545     S
Ti32     V68    10.0   .     S
Ti33     Ti34    10.0   1_655     S
Ti33     V65    10.0   .     S
Ti34     Ti33    10.0   1_455     S
Ti34     V68    10.0   .     S
Ti35     Ti36    10.0   1_556     S
Ti35     V63    10.0   .     S
Ti36     Ti35    10.0   1_554     S
Ti36     V68    10.0   .     S
Ti37     Ti38    10.0   .     S
Ti37     V68    10.0   .     S
Ti38     V64    10.0   .     S
Ti39     Ti40    10.0   .     S
Ti39     V68    10.0   .     S
Ti40     V65    10.0   .     S
Ti41     Er10    10.0   1_556     S
Ti41     Ti42    10.0   .     S
Ti41     V63    10.0   .     S
Ti42     Er8    10.0   1_556     S
Ti42     V60    10.0   .     S
Ti43     Er10    10.0   1_565     S
Ti43     Ti44    10.0   .     S
Ti43     V64    10.0   .     S
Ti44     Er8    10.0   1_565     S
Ti44     V59    10.0   .     S
Ti45     Er9    10.0   1_655     S
Ti45     Ti46    10.0   .     S
Ti45     V65    10.0   .     S
Ti46     Er7    10.0   1_655     S
Ti46     V59    10.0   .     S
Ti47     Er12    10.0   1_655     S
Ti47     Ti48    10.0   .     S
Ti47     V65    10.0   .     S
Ti48     Er11    10.0   1_655     S
Ti48     V60    10.0   .     S
Ti49     Er12    10.0   1_565     S
Ti49     Ti50    10.0   .     S
Ti49     V64    10.0   .     S
Ti50     Er11    10.0   1_565     S
Ti50     V57    10.0   .     S
Ti51     Er9    10.0   1_656     S
Ti51     Ti52    10.0   .     S
Ti51     V60    10.0   .     S
Ti52     Er7    10.0   1_656     S
Ti52     V58    10.0   .     S
Ti53     Er12    10.0   1_665     S
Ti53     Ti54    10.0   .     S
Ti53     V59    10.0   .     S
Ti54     Er11    10.0   1_665     S
Ti54     V58    10.0   .     S
Ti55     Er10    10.0   1_566     S
Ti55     Ti56    10.0   .     S
Ti55     V57    10.0   .     S
Ti56     Er8    10.0   1_566     S
Ti56     V58    10.0   .     S
V57     Ti62    10.0   .     S
Ti61     Er9    10.0   1_556     S
Ti61     Ti62    10.0   .     S
Ti61     V63    10.0   .     S
Ti62     Er7    10.0   1_556     S
V63     Ti67    10.0   .     S
Ti66     Ti67    10.0   .     S
Ti66     V68    10.0   .     S
