data_mcx
_audit_creation_date              2020-02-04
_audit_creation_method            'Pymatgen'
_symmetry_space_group_name_H-M    'P1'
_symmetry_Int_Tables_number       1
loop_
_symmetry_equiv_pos_as_xyz
  x,y,z
_cell_length_a                    50.3665
_cell_length_b                    50.3665
_cell_length_c                    50.3665
_cell_angle_alpha                 90.0
_cell_angle_beta                 90.0
_cell_angle_gamma                 90.0
loop_
_atom_site_label
_atom_site_type_symbol
_atom_site_fract_x
_atom_site_fract_y
_atom_site_fract_z
V1     V     0.6893   0.6893   0.8236
V2     V     0.5607   0.5607   0.8236
Er3     Er     0.625   0.625   0.9888
V4     V     0.5607   0.4264   0.6893
V5     V     0.6893   0.4264   0.5607
Er6     Er     0.625   0.2612   0.625
V7     V     0.5607   0.6893   0.4264
V8     V     0.6893   0.5607   0.4264
Er9     Er     0.625   0.625   0.2612
V10     V     0.4264   0.6893   0.5607
V11     V     0.4264   0.5607   0.6893
Er12     Er     0.2612   0.625   0.625
V13     V     0.6893   0.8236   0.6893
V14     V     0.5607   0.8236   0.5607
Er15     Er     0.625   0.9888   0.625
V16     V     0.8236   0.6893   0.6893
V17     V     0.8236   0.5607   0.5607
Er18     Er     0.9888   0.625   0.625
V19     V     0.0607   0.0607   0.8236
V20     V     0.1893   0.1893   0.8236
Er21     Er     0.125   0.125   0.9888
V22     V     0.0607   0.1893   0.4264
V23     V     0.1893   0.0607   0.4264
Er24     Er     0.125   0.125   0.2612
V25     V     0.1893   0.3236   0.6893
V26     V     0.0607   0.3236   0.5607
Er27     Er     0.125   0.4888   0.625
V28     V     0.3236   0.1893   0.6893
V29     V     0.3236   0.0607   0.5607
Er30     Er     0.4888   0.125   0.625
V31     V     0.9264   0.0607   0.6893
V32     V     0.9264   0.1893   0.5607
Er33     Er     0.7612   0.125   0.625
V34     V     0.0607   0.9264   0.6893
V35     V     0.1893   0.9264   0.5607
Er36     Er     0.125   0.7612   0.625
V37     V     0.8236   0.0607   0.0607
V38     V     0.8236   0.1893   0.1893
Er39     Er     0.9888   0.125   0.125
V40     V     0.4264   0.0607   0.1893
V41     V     0.4264   0.1893   0.0607
Er42     Er     0.2612   0.125   0.125
V43     V     0.6893   0.1893   0.3236
V44     V     0.5607   0.0607   0.3236
Er45     Er     0.625   0.125   0.4888
V46     V     0.6893   0.3236   0.1893
V47     V     0.5607   0.3236   0.0607
Er48     Er     0.625   0.4888   0.125
V49     V     0.6893   0.9264   0.0607
V50     V     0.5607   0.9264   0.1893
Er51     Er     0.625   0.7612   0.125
V52     V     0.6893   0.0607   0.9264
V53     V     0.5607   0.1893   0.9264
Er54     Er     0.625   0.125   0.7612
V55     V     0.1893   0.8236   0.1893
V56     V     0.0607   0.8236   0.0607
Er57     Er     0.125   0.9888   0.125
V58     V     0.1893   0.4264   0.0607
V59     V     0.0607   0.4264   0.1893
Er60     Er     0.125   0.2612   0.125
V61     V     0.1893   0.6893   0.3236
V62     V     0.0607   0.5607   0.3236
Er63     Er     0.125   0.625   0.4888
V64     V     0.3236   0.6893   0.1893
V65     V     0.3236   0.5607   0.0607
Er66     Er     0.4888   0.625   0.125
V67     V     0.9264   0.6893   0.0607
V68     V     0.9264   0.5607   0.1893
Er69     Er     0.7612   0.625   0.125
V70     V     0.0607   0.6893   0.9264
V71     V     0.1893   0.5607   0.9264
Er72     Er     0.125   0.625   0.7612
V73     V     0.9393   0.0736   0.3107
V74     V     0.8107   0.0736   0.4393
Er75     Er     0.875   0.2388   0.375
V76     V     0.6764   0.9393   0.4393
V77     V     0.6764   0.8107   0.3107
Er78     Er     0.5112   0.875   0.375
V79     V     0.9393   0.8107   0.5736
V80     V     0.8107   0.9393   0.5736
Er81     Er     0.875   0.875   0.7388
V82     V     0.9393   0.6764   0.4393
V83     V     0.8107   0.6764   0.3107
Er84     Er     0.875   0.5112   0.375
V85     V     0.9393   0.9393   0.1764
V86     V     0.8107   0.8107   0.1764
Er87     Er     0.875   0.875   0.0112
V88     V     0.0736   0.9393   0.3107
V89     V     0.0736   0.8107   0.4393
Er90     Er     0.2388   0.875   0.375
V91     V     0.6764   0.4393   0.9393
V92     V     0.6764   0.3107   0.8107
Er93     Er     0.5112   0.375   0.875
V94     V     0.0736   0.3107   0.9393
V95     V     0.0736   0.4393   0.8107
Er96     Er     0.2388   0.375   0.875
V97     V     0.9393   0.5736   0.8107
V98     V     0.8107   0.5736   0.9393
Er99     Er     0.875   0.7388   0.875
V100     V     0.9393   0.4393   0.6764
V101     V     0.8107   0.3107   0.6764
Er102     Er     0.875   0.375   0.5112
V103     V     0.9393   0.1764   0.9393
V104     V     0.8107   0.1764   0.8107
Er105     Er     0.875   0.0112   0.875
V106     V     0.9393   0.3107   0.0736
V107     V     0.8107   0.4393   0.0736
Er108     Er     0.875   0.375   0.2388
V109     V     0.1764   0.4393   0.4393
V110     V     0.1764   0.3107   0.3107
Er111     Er     0.0112   0.375   0.375
V112     V     0.4393   0.3107   0.5736
V113     V     0.3107   0.4393   0.5736
Er114     Er     0.375   0.375   0.7388
V115     V     0.3107   0.3107   0.1764
V116     V     0.4393   0.4393   0.1764
Er117     Er     0.375   0.375   0.0112
V118     V     0.3107   0.1764   0.3107
V119     V     0.4393   0.1764   0.4393
Er120     Er     0.375   0.0112   0.375
V121     V     0.3107   0.5736   0.4393
V122     V     0.4393   0.5736   0.3107
Er123     Er     0.375   0.7388   0.375
V124     V     0.5736   0.3107   0.4393
V125     V     0.5736   0.4393   0.3107
Er126     Er     0.7388   0.375   0.375
V127     V     0.1764   0.9393   0.9393
V128     V     0.1764   0.8107   0.8107
Er129     Er     0.0112   0.875   0.875
V130     V     0.3107   0.0736   0.9393
V131     V     0.4393   0.0736   0.8107
Er132     Er     0.375   0.2388   0.875
V133     V     0.3107   0.9393   0.0736
V134     V     0.4393   0.8107   0.0736
Er135     Er     0.375   0.875   0.2388
V136     V     0.5736   0.8107   0.9393
V137     V     0.5736   0.9393   0.8107
Er138     Er     0.7388   0.875   0.875
V139     V     0.4393   0.6764   0.9393
V140     V     0.3107   0.6764   0.8107
Er141     Er     0.375   0.5112   0.875
V142     V     0.4393   0.9393   0.6764
V143     V     0.3107   0.8107   0.6764
Er144     Er     0.375   0.875   0.5112
Ti145     Ti     0.0   0.75   0.25
Ti146     Ti     0.25   0.25   0.5
Ti147     Ti     0.5   0.25   0.25
Ti148     Ti     0.25   0.0   0.75
Ti149     Ti     0.25   0.5   0.25
Ti150     Ti     0.0   0.25   0.75
Ti151     Ti     0.75   0.0   0.25
Ti152     Ti     0.75   0.5   0.75
Ti153     Ti     0.75   0.75   0.5
Ti154     Ti     0.25   0.75   0.0
Ti155     Ti     0.75   0.25   0.0
Ti156     Ti     0.0   0.0   0.5
Ti157     Ti     0.5   0.0   0.0
Ti158     Ti     0.0   0.5   0.0
Ti159     Ti     0.5   0.5   0.5
Ti160     Ti     0.5   0.75   0.75
loop_
_geom_bond_atom_site_label_1
_geom_bond_atom_site_label_2
_geom_bond_distance
_geom_bond_site_symmetry_2
_ccdc_geom_bond_type
V1     Er3    9.496   .     S
V1     V98    10.261   .     S
V1     V136    10.261   .     S
V1     Er99    10.02   .     S
V1     Er138    10.02   .     S
V1     Ti160    10.677   .     S
V1     Ti152    10.677   .     S
V1     V2    9.159   .     S
V1     V13    9.568   .     S
V1     V16    9.568   .     S
V2     Er3    9.496   .     S
V2     V91    10.261   .     S
V2     V139    10.261   .     S
V2     Er93    10.02   .     S
V2     Er141    10.02   .     S
V2     Ti160    10.677   .     S
V2     Ti152    10.677   .     S
V2     V11    9.568   .     S
V2     V4    9.568   .     S
Er3     Er66    9.703   1_556     S
Er3     Er48    9.703   1_556     S
Er3     Er51    9.703   1_556     S
Er3     Er69    9.703   1_556     S
Er3     V98    10.02   .     S
Er3     V91    10.02   .     S
Er3     V136    10.02   .     S
Er3     V139    10.02   .     S
V4     Er6    9.496   .     S
V4     V112    10.261   .     S
V4     V92    10.261   .     S
V4     Er114    10.02   .     S
V4     Er93    10.02   .     S
V4     Ti159    10.677   .     S
V4     Ti152    10.677   .     S
V4     V5    9.159   .     S
V4     V11    9.568   .     S
V5     Er6    9.496   .     S
V5     V124    10.261   .     S
V5     V101    10.261   .     S
V5     Er126    10.02   .     S
V5     Er102    10.02   .     S
V5     Ti159    10.677   .     S
V5     Ti152    10.677   .     S
V5     V8    9.568   .     S
V5     V17    9.568   .     S
Er6     Er54    9.703   .     S
Er6     Er30    9.703   .     S
Er6     Er33    9.703   .     S
Er6     Er45    9.703   .     S
Er6     V112    10.02   .     S
Er6     V124    10.02   .     S
Er6     V101    10.02   .     S
Er6     V92    10.02   .     S
V7     Er9    9.496   .     S
V7     V122    10.261   .     S
V7     V77    10.261   .     S
V7     Er123    10.02   .     S
V7     Er78    10.02   .     S
V7     Ti159    10.677   .     S
V7     Ti153    10.677   .     S
V7     V8    9.159   .     S
V7     V10    9.568   .     S
V7     V14    9.568   .     S
V8     Er9    9.496   .     S
V8     V125    10.261   .     S
V8     V83    10.261   .     S
V8     Er126    10.02   .     S
V8     Er84    10.02   .     S
V8     Ti159    10.677   .     S
V8     Ti153    10.677   .     S
V8     V17    9.568   .     S
Er9     Er51    9.703   .     S
Er9     Er66    9.703   .     S
Er9     Er69    9.703   .     S
Er9     Er48    9.703   .     S
Er9     V125    10.02   .     S
Er9     V122    10.02   .     S
Er9     V77    10.02   .     S
Er9     V83    10.02   .     S
V10     Er12    9.496   .     S
V10     V121    10.261   .     S
V10     V143    10.261   .     S
V10     Er123    10.02   .     S
V10     Er144    10.02   .     S
V10     Ti159    10.677   .     S
V10     Ti160    10.677   .     S
V10     V11    9.159   .     S
V10     V14    9.568   .     S
V11     Er12    9.496   .     S
V11     V113    10.261   .     S
V11     V140    10.261   .     S
V11     Er114    10.02   .     S
V11     Er141    10.02   .     S
V11     Ti159    10.677   .     S
V11     Ti160    10.677   .     S
Er12     Er36    9.703   .     S
Er12     Er72    9.703   .     S
Er12     Er27    9.703   .     S
Er12     Er63    9.703   .     S
Er12     V113    10.02   .     S
Er12     V121    10.02   .     S
Er12     V140    10.02   .     S
Er12     V143    10.02   .     S
V13     Er15    9.496   .     S
V13     V80    10.261   .     S
V13     V137    10.261   .     S
V13     Er81    10.02   .     S
V13     Er138    10.02   .     S
V13     Ti160    10.677   .     S
V13     Ti153    10.677   .     S
V13     V14    9.159   .     S
V13     V16    9.568   .     S
V14     Er15    9.496   .     S
V14     V76    10.261   .     S
V14     V142    10.261   .     S
V14     Er78    10.02   .     S
V14     Er144    10.02   .     S
V14     Ti160    10.677   .     S
V14     Ti153    10.677   .     S
Er15     Er45    9.703   1_565     S
Er15     Er30    9.703   1_565     S
Er15     Er54    9.703   1_565     S
Er15     Er33    9.703   1_565     S
Er15     V80    10.02   .     S
Er15     V76    10.02   .     S
Er15     V137    10.02   .     S
Er15     V142    10.02   .     S
V16     Er18    9.496   .     S
V16     V79    10.261   .     S
V16     V97    10.261   .     S
V16     Er81    10.02   .     S
V16     Er99    10.02   .     S
V16     Ti152    10.677   .     S
V16     Ti153    10.677   .     S
V16     V17    9.159   .     S
V17     Er18    9.496   .     S
V17     V82    10.261   .     S
V17     V100    10.261   .     S
V17     Er84    10.02   .     S
V17     Er102    10.02   .     S
V17     Ti152    10.677   .     S
V17     Ti153    10.677   .     S
Er18     Er27    9.703   1_655     S
Er18     Er63    9.703   1_655     S
Er18     Er36    9.703   1_655     S
Er18     Er72    9.703   1_655     S
Er18     V79    10.02   .     S
Er18     V82    10.02   .     S
Er18     V100    10.02   .     S
Er18     V97    10.02   .     S
V19     Er21    9.496   .     S
V19     V103    10.261   1_455     S
V19     V127    10.261   1_545     S
V19     Er105    10.02   1_455     S
V19     Er129    10.02   1_545     S
V19     Ti148    10.677   .     S
V19     Ti150    10.677   .     S
V19     V20    9.159   .     S
V19     V34    9.568   1_545     S
V19     V31    9.568   1_455     S
V20     Er21    9.496   .     S
V20     V94    10.261   .     S
V20     V130    10.261   .     S
V20     Er96    10.02   .     S
V20     Er132    10.02   .     S
V20     Ti148    10.677   .     S
V20     Ti150    10.677   .     S
V20     V28    9.568   .     S
V20     V25    9.568   .     S
Er21     Er42    9.703   1_556     S
Er21     Er60    9.703   1_556     S
Er21     Er39    9.703   1_456     S
Er21     Er57    9.703   1_546     S
Er21     V103    10.02   1_455     S
Er21     V94    10.02   .     S
Er21     V127    10.02   1_545     S
Er21     V130    10.02   .     S
V22     Er24    9.496   .     S
V22     V110    10.261   .     S
V22     V73    10.261   1_455     S
V22     Er111    10.02   .     S
V22     Er75    10.02   1_455     S
V22     Ti146    10.677   .     S
V22     Ti156    10.677   .     S
V22     V23    9.159   .     S
V22     V32    9.568   1_455     S
V22     V26    9.568   .     S
V23     Er24    9.496   .     S
V23     V118    10.261   .     S
V23     V88    10.261   1_545     S
V23     Er120    10.02   .     S
V23     Er90    10.02   1_545     S
V23     Ti146    10.677   .     S
V23     Ti156    10.677   .     S
V23     V35    9.568   1_545     S
V23     V29    9.568   .     S
Er24     Er42    9.703   .     S
Er24     Er57    9.703   1_545     S
Er24     Er39    9.703   1_455     S
Er24     Er60    9.703   .     S
Er24     V110    10.02   .     S
Er24     V118    10.02   .     S
Er24     V73    10.02   1_455     S
Er24     V88    10.02   1_545     S
V25     Er27    9.496   .     S
V25     V95    10.261   .     S
V25     V113    10.261   .     S
V25     Er96    10.02   .     S
V25     Er114    10.02   .     S
V25     Ti146    10.677   .     S
V25     Ti150    10.677   .     S
V25     V26    9.159   .     S
V25     V28    9.568   .     S
V26     Er27    9.496   .     S
V26     V100    10.261   1_455     S
V26     V109    10.261   .     S
V26     Er102    10.02   1_455     S
V26     Er111    10.02   .     S
V26     Ti146    10.677   .     S
V26     Ti150    10.677   .     S
V26     V32    9.568   1_455     S
Er27     Er18    9.703   1_455     S
Er27     Er63    9.703   .     S
Er27     Er72    9.703   .     S
Er27     V100    10.02   1_455     S
Er27     V95    10.02   .     S
Er27     V113    10.02   .     S
Er27     V109    10.02   .     S
V28     Er30    9.496   .     S
V28     V112    10.261   .     S
V28     V131    10.261   .     S
V28     Er114    10.02   .     S
V28     Er132    10.02   .     S
V28     Ti146    10.677   .     S
V28     Ti148    10.677   .     S
V28     V29    9.159   .     S
V29     Er30    9.496   .     S
V29     V119    10.261   .     S
V29     V142    10.261   1_545     S
V29     Er120    10.02   .     S
V29     Er144    10.02   1_545     S
V29     Ti146    10.677   .     S
V29     Ti148    10.677   .     S
V29     V35    9.568   1_545     S
Er30     Er45    9.703   .     S
Er30     Er54    9.703   .     S
Er30     Er15    9.703   1_545     S
Er30     V112    10.02   .     S
Er30     V119    10.02   .     S
Er30     V131    10.02   .     S
Er30     V142    10.02   1_545     S
V31     Er33    9.496   .     S
V31     V104    10.261   .     S
V31     V80    10.261   1_545     S
V31     Er105    10.02   .     S
V31     Er81    10.02   1_545     S
V31     Ti150    10.677   1_655     S
V31     Ti156    10.677   1_655     S
V31     V32    9.159   .     S
V31     V19    9.568   1_655     S
V31     V34    9.568   1_645     S
V32     Er33    9.496   .     S
V32     V101    10.261   .     S
V32     V74    10.261   .     S
V32     Er102    10.02   .     S
V32     Er75    10.02   .     S
V32     Ti150    10.677   1_655     S
V32     Ti156    10.677   1_655     S
V32     V22    9.568   1_655     S
V32     V26    9.568   1_655     S
Er33     Er45    9.703   .     S
Er33     Er15    9.703   1_545     S
Er33     Er54    9.703   .     S
Er33     V101    10.02   .     S
Er33     V104    10.02   .     S
Er33     V80    10.02   1_545     S
Er33     V74    10.02   .     S
V34     Er36    9.496   .     S
V34     V79    10.261   1_455     S
V34     V128    10.261   .     S
V34     Er81    10.02   1_455     S
V34     Er129    10.02   .     S
V34     Ti148    10.677   1_565     S
V34     Ti156    10.677   1_565     S
V34     V35    9.159   .     S
V34     V19    9.568   1_565     S
V34     V31    9.568   1_465     S
V35     Er36    9.496   .     S
V35     V89    10.261   .     S
V35     V143    10.261   .     S
V35     Er90    10.02   .     S
V35     Er144    10.02   .     S
V35     Ti148    10.677   1_565     S
V35     Ti156    10.677   1_565     S
V35     V23    9.568   1_565     S
V35     V29    9.568   1_565     S
Er36     Er63    9.703   .     S
Er36     Er18    9.703   1_455     S
Er36     Er72    9.703   .     S
Er36     V79    10.02   1_455     S
Er36     V89    10.02   .     S
Er36     V128    10.02   .     S
Er36     V143    10.02   .     S
V37     Er39    9.496   .     S
V37     V103    10.261   1_554     S
V37     V85    10.261   1_545     S
V37     Er105    10.02   1_554     S
V37     Er87    10.02   1_545     S
V37     Ti151    10.677   .     S
V37     Ti155    10.677   .     S
V37     V38    9.159   .     S
V37     V52    9.568   1_554     S
V37     V49    9.568   1_545     S
V38     Er39    9.496   .     S
V38     V106    10.261   .     S
V38     V73    10.261   .     S
V38     Er108    10.02   .     S
V38     Er75    10.02   .     S
V38     Ti151    10.677   .     S
V38     Ti155    10.677   .     S
V38     V43    9.568   .     S
V38     V46    9.568   .     S
Er39     Er60    9.703   1_655     S
Er39     Er24    9.703   1_655     S
Er39     Er21    9.703   1_654     S
Er39     Er57    9.703   1_645     S
Er39     V103    10.02   1_554     S
Er39     V106    10.02   .     S
Er39     V73    10.02   .     S
Er39     V85    10.02   1_545     S
V40     Er42    9.496   .     S
V40     V118    10.261   .     S
V40     V133    10.261   1_545     S
V40     Er120    10.02   .     S
V40     Er135    10.02   1_545     S
V40     Ti147    10.677   .     S
V40     Ti157    10.677   .     S
V40     V41    9.159   .     S
V40     V50    9.568   1_545     S
V40     V44    9.568   .     S
V41     Er42    9.496   .     S
V41     V115    10.261   .     S
V41     V130    10.261   1_554     S
V41     Er117    10.02   .     S
V41     Er132    10.02   1_554     S
V41     Ti147    10.677   .     S
V41     Ti157    10.677   .     S
V41     V53    9.568   1_554     S
V41     V47    9.568   .     S
Er42     Er60    9.703   .     S
Er42     Er21    9.703   1_554     S
Er42     Er57    9.703   1_545     S
Er42     V118    10.02   .     S
Er42     V115    10.02   .     S
Er42     V133    10.02   1_545     S
Er42     V130    10.02   1_554     S
V43     Er45    9.496   .     S
V43     V124    10.261   .     S
V43     V74    10.261   .     S
V43     Er126    10.02   .     S
V43     Er75    10.02   .     S
V43     Ti147    10.677   .     S
V43     Ti151    10.677   .     S
V43     V44    9.159   .     S
V43     V46    9.568   .     S
V44     Er45    9.496   .     S
V44     V119    10.261   .     S
V44     V76    10.261   1_545     S
V44     Er120    10.02   .     S
V44     Er78    10.02   1_545     S
V44     Ti147    10.677   .     S
V44     Ti151    10.677   .     S
V44     V50    9.568   1_545     S
Er45     Er15    9.703   1_545     S
Er45     V124    10.02   .     S
Er45     V119    10.02   .     S
Er45     V76    10.02   1_545     S
Er45     V74    10.02   .     S
V46     Er48    9.496   .     S
V46     V125    10.261   .     S
V46     V107    10.261   .     S
V46     Er126    10.02   .     S
V46     Er108    10.02   .     S
V46     Ti147    10.677   .     S
V46     Ti155    10.677   .     S
V46     V47    9.159   .     S
V47     Er48    9.496   .     S
V47     V116    10.261   .     S
V47     V91    10.261   1_554     S
V47     Er117    10.02   .     S
V47     Er93    10.02   1_554     S
V47     Ti147    10.677   .     S
V47     Ti155    10.677   .     S
V47     V53    9.568   1_554     S
Er48     Er66    9.703   .     S
Er48     Er3    9.703   1_554     S
Er48     Er69    9.703   .     S
Er48     V125    10.02   .     S
Er48     V116    10.02   .     S
Er48     V107    10.02   .     S
Er48     V91    10.02   1_554     S
V49     Er51    9.496   .     S
V49     V86    10.261   .     S
V49     V136    10.261   1_554     S
V49     Er87    10.02   .     S
V49     Er138    10.02   1_554     S
V49     Ti151    10.677   1_565     S
V49     Ti157    10.677   1_565     S
V49     V50    9.159   .     S
V49     V37    9.568   1_565     S
V49     V52    9.568   1_564     S
V50     Er51    9.496   .     S
V50     V77    10.261   .     S
V50     V134    10.261   .     S
V50     Er78    10.02   .     S
V50     Er135    10.02   .     S
V50     Ti151    10.677   1_565     S
V50     Ti157    10.677   1_565     S
V50     V40    9.568   1_565     S
V50     V44    9.568   1_565     S
Er51     Er66    9.703   .     S
Er51     Er69    9.703   .     S
Er51     Er3    9.703   1_554     S
Er51     V77    10.02   .     S
Er51     V86    10.02   .     S
Er51     V136    10.02   1_554     S
Er51     V134    10.02   .     S
V52     Er54    9.496   .     S
V52     V104    10.261   .     S
V52     V137    10.261   1_545     S
V52     Er105    10.02   .     S
V52     Er138    10.02   1_545     S
V52     Ti155    10.677   1_556     S
V52     Ti157    10.677   1_556     S
V52     V53    9.159   .     S
V52     V37    9.568   1_556     S
V52     V49    9.568   1_546     S
V53     Er54    9.496   .     S
V53     V92    10.261   .     S
V53     V131    10.261   .     S
V53     Er93    10.02   .     S
V53     Er132    10.02   .     S
V53     Ti155    10.677   1_556     S
V53     Ti157    10.677   1_556     S
V53     V41    9.568   1_556     S
V53     V47    9.568   1_556     S
Er54     Er15    9.703   1_545     S
Er54     V92    10.02   .     S
Er54     V104    10.02   .     S
Er54     V137    10.02   1_545     S
Er54     V131    10.02   .     S
V55     Er57    9.496   .     S
V55     V88    10.261   .     S
V55     V133    10.261   .     S
V55     Er90    10.02   .     S
V55     Er135    10.02   .     S
V55     Ti145    10.677   .     S
V55     Ti154    10.677   .     S
V55     V56    9.159   .     S
V55     V61    9.568   .     S
V55     V64    9.568   .     S
V56     Er57    9.496   .     S
V56     V85    10.261   1_455     S
V56     V127    10.261   1_554     S
V56     Er87    10.02   1_455     S
V56     Er129    10.02   1_554     S
V56     Ti145    10.677   .     S
V56     Ti154    10.677   .     S
V56     V67    9.568   1_455     S
V56     V70    9.568   1_554     S
Er57     Er24    9.703   1_565     S
Er57     Er42    9.703   1_565     S
Er57     Er21    9.703   1_564     S
Er57     Er39    9.703   1_465     S
Er57     V88    10.02   .     S
Er57     V85    10.02   1_455     S
Er57     V133    10.02   .     S
Er57     V127    10.02   1_554     S
V58     Er60    9.496   .     S
V58     V94    10.261   1_554     S
V58     V115    10.261   .     S
V58     Er96    10.02   1_554     S
V58     Er117    10.02   .     S
V58     Ti149    10.677   .     S
V58     Ti158    10.677   .     S
V58     V59    9.159   .     S
V58     V71    9.568   1_554     S
V58     V65    9.568   .     S
V59     Er60    9.496   .     S
V59     V106    10.261   1_455     S
V59     V110    10.261   .     S
V59     Er108    10.02   1_455     S
V59     Er111    10.02   .     S
V59     Ti149    10.677   .     S
V59     Ti158    10.677   .     S
V59     V68    9.568   1_455     S
V59     V62    9.568   .     S
Er60     Er21    9.703   1_554     S
Er60     Er39    9.703   1_455     S
Er60     V94    10.02   1_554     S
Er60     V106    10.02   1_455     S
Er60     V115    10.02   .     S
Er60     V110    10.02   .     S
V61     Er63    9.496   .     S
V61     V89    10.261   .     S
V61     V121    10.261   .     S
V61     Er90    10.02   .     S
V61     Er123    10.02   .     S
V61     Ti149    10.677   .     S
V61     Ti145    10.677   .     S
V61     V62    9.159   .     S
V61     V64    9.568   .     S
V62     Er63    9.496   .     S
V62     V82    10.261   1_455     S
V62     V109    10.261   .     S
V62     Er84    10.02   1_455     S
V62     Er111    10.02   .     S
V62     Ti149    10.677   .     S
V62     Ti145    10.677   .     S
V62     V68    9.568   1_455     S
Er63     Er18    9.703   1_455     S
Er63     V82    10.02   1_455     S
Er63     V89    10.02   .     S
Er63     V109    10.02   .     S
Er63     V121    10.02   .     S
V64     Er66    9.496   .     S
V64     V122    10.261   .     S
V64     V134    10.261   .     S
V64     Er123    10.02   .     S
V64     Er135    10.02   .     S
V64     Ti149    10.677   .     S
V64     Ti154    10.677   .     S
V64     V65    9.159   .     S
V65     Er66    9.496   .     S
V65     V116    10.261   .     S
V65     V139    10.261   1_554     S
V65     Er117    10.02   .     S
V65     Er141    10.02   1_554     S
V65     Ti149    10.677   .     S
V65     Ti154    10.677   .     S
V65     V71    9.568   1_554     S
Er66     Er3    9.703   1_554     S
Er66     V122    10.02   .     S
Er66     V116    10.02   .     S
Er66     V134    10.02   .     S
Er66     V139    10.02   1_554     S
V67     Er69    9.496   .     S
V67     V98    10.261   1_554     S
V67     V86    10.261   .     S
V67     Er99    10.02   1_554     S
V67     Er87    10.02   .     S
V67     Ti145    10.677   1_655     S
V67     Ti158    10.677   1_655     S
V67     V68    9.159   .     S
V67     V56    9.568   1_655     S
V67     V70    9.568   1_654     S
V68     Er69    9.496   .     S
V68     V107    10.261   .     S
V68     V83    10.261   .     S
V68     Er108    10.02   .     S
V68     Er84    10.02   .     S
V68     Ti145    10.677   1_655     S
V68     Ti158    10.677   1_655     S
V68     V59    9.568   1_655     S
V68     V62    9.568   1_655     S
Er69     Er3    9.703   1_554     S
Er69     V98    10.02   1_554     S
Er69     V107    10.02   .     S
Er69     V83    10.02   .     S
Er69     V86    10.02   .     S
V70     Er72    9.496   .     S
V70     V97    10.261   1_455     S
V70     V128    10.261   .     S
V70     Er99    10.02   1_455     S
V70     Er129    10.02   .     S
V70     Ti154    10.677   1_556     S
V70     Ti158    10.677   1_556     S
V70     V71    9.159   .     S
V70     V56    9.568   1_556     S
V70     V67    9.568   1_456     S
V71     Er72    9.496   .     S
V71     V95    10.261   .     S
V71     V140    10.261   .     S
V71     Er96    10.02   .     S
V71     Er141    10.02   .     S
V71     Ti154    10.677   1_556     S
V71     Ti158    10.677   1_556     S
V71     V58    9.568   1_556     S
V71     V65    9.568   1_556     S
Er72     Er18    9.703   1_455     S
Er72     V97    10.02   1_455     S
Er72     V95    10.02   .     S
Er72     V128    10.02   .     S
Er72     V140    10.02   .     S
V73     Er75    9.496   .     S
V73     V22    10.261   1_655     S
V73     Er24    10.02   1_655     S
V73     Ti151    10.677   .     S
V73     Ti156    10.677   1_655     S
V73     V74    9.159   .     S
V73     V85    9.568   1_545     S
V73     V88    9.568   1_645     S
V74     Er75    9.496   .     S
V74     Ti151    10.677   .     S
V74     Ti156    10.677   1_655     S
V74     V80    9.568   1_545     S
V74     V76    9.568   1_545     S
Er75     Er108    9.703   .     S
Er75     Er111    9.703   1_655     S
Er75     Er126    9.703   .     S
Er75     Er102    9.703   .     S
Er75     V22    10.02   1_655     S
V76     Er78    9.496   .     S
V76     V44    10.261   1_565     S
V76     Er45    10.02   1_565     S
V76     Ti151    10.677   1_565     S
V76     Ti153    10.677   .     S
V76     V77    9.159   .     S
V76     V74    9.568   1_565     S
V76     V80    9.568   .     S
V77     Er78    9.496   .     S
V77     Ti151    10.677   1_565     S
V77     Ti153    10.677   .     S
V77     V86    9.568   .     S
V77     V83    9.568   .     S
Er78     Er123    9.703   .     S
Er78     Er120    9.703   1_565     S
Er78     Er144    9.703   .     S
Er78     Er135    9.703   .     S
Er78     V44    10.02   1_565     S
V79     Er81    9.496   .     S
V79     V34    10.261   1_655     S
V79     Er36    10.02   1_655     S
V79     Ti153    10.677   .     S
V79     Ti156    10.677   1_665     S
V79     V80    9.159   .     S
V79     V89    9.568   1_655     S
V79     V82    9.568   .     S
V80     Er81    9.496   .     S
V80     V31    10.261   1_565     S
V80     Er33    10.02   1_565     S
V80     Ti153    10.677   .     S
V80     Ti156    10.677   1_665     S
V80     V74    9.568   1_565     S
Er81     Er129    9.703   1_655     S
Er81     Er105    9.703   1_565     S
Er81     Er99    9.703   .     S
Er81     Er138    9.703   .     S
Er81     V34    10.02   1_655     S
Er81     V31    10.02   1_565     S
V82     Er84    9.496   .     S
V82     V62    10.261   1_655     S
V82     Er63    10.02   1_655     S
V82     Ti145    10.677   1_655     S
V82     Ti153    10.677   .     S
V82     V83    9.159   .     S
V82     V89    9.568   1_655     S
V83     Er84    9.496   .     S
V83     Ti145    10.677   1_655     S
V83     Ti153    10.677   .     S
V83     V86    9.568   .     S
Er84     Er126    9.703   .     S
Er84     Er102    9.703   .     S
Er84     Er108    9.703   .     S
Er84     Er111    9.703   1_655     S
Er84     V62    10.02   1_655     S
V85     Er87    9.496   .     S
V85     V56    10.261   1_655     S
V85     V37    10.261   1_565     S
V85     Er57    10.02   1_655     S
V85     Er39    10.02   1_565     S
V85     Ti151    10.677   1_565     S
V85     Ti145    10.677   1_655     S
V85     V86    9.159   .     S
V85     V73    9.568   1_565     S
V85     V88    9.568   1_655     S
V86     Er87    9.496   .     S
V86     Ti151    10.677   1_565     S
V86     Ti145    10.677   1_655     S
Er87     Er138    9.703   1_554     S
Er87     Er99    9.703   1_554     S
Er87     Er129    9.703   1_654     S
Er87     Er105    9.703   1_564     S
Er87     V56    10.02   1_655     S
Er87     V37    10.02   1_565     S
V88     Er90    9.496   .     S
V88     V23    10.261   1_565     S
V88     Er24    10.02   1_565     S
V88     Ti145    10.677   .     S
V88     Ti156    10.677   1_565     S
V88     V89    9.159   .     S
V88     V73    9.568   1_465     S
V88     V85    9.568   1_455     S
V89     Er90    9.496   .     S
V89     Ti145    10.677   .     S
V89     Ti156    10.677   1_565     S
V89     V79    9.568   1_455     S
V89     V82    9.568   1_455     S
Er90     Er144    9.703   .     S
Er90     Er120    9.703   1_565     S
Er90     Er123    9.703   .     S
Er90     Er135    9.703   .     S
Er90     V23    10.02   1_565     S
V91     Er93    9.496   .     S
V91     V47    10.261   1_556     S
V91     Er48    10.02   1_556     S
V91     Ti155    10.677   1_556     S
V91     Ti152    10.677   .     S
V91     V92    9.159   .     S
V91     V98    9.568   .     S
V91     V107    9.568   1_556     S
V92     Er93    9.496   .     S
V92     Ti155    10.677   1_556     S
V92     Ti152    10.677   .     S
V92     V104    9.568   .     S
V92     V101    9.568   .     S
Er93     Er132    9.703   .     S
Er93     Er117    9.703   1_556     S
Er93     Er141    9.703   .     S
Er93     Er114    9.703   .     S
Er93     V47    10.02   1_556     S
V94     Er96    9.496   .     S
V94     V58    10.261   1_556     S
V94     Er60    10.02   1_556     S
V94     Ti158    10.677   1_556     S
V94     Ti150    10.677   .     S
V94     V95    9.159   .     S
V94     V103    9.568   1_455     S
V94     V106    9.568   1_456     S
V95     Er96    9.496   .     S
V95     Ti158    10.677   1_556     S
V95     Ti150    10.677   .     S
V95     V97    9.568   1_455     S
V95     V100    9.568   1_455     S
Er96     Er114    9.703   .     S
Er96     Er117    9.703   1_556     S
Er96     Er132    9.703   .     S
Er96     Er141    9.703   .     S
Er96     V58    10.02   1_556     S
V97     Er99    9.496   .     S
V97     V70    10.261   1_655     S
V97     Er72    10.02   1_655     S
V97     Ti152    10.677   .     S
V97     Ti158    10.677   1_656     S
V97     V98    9.159   .     S
V97     V95    9.568   1_655     S
V97     V100    9.568   .     S
V98     Er99    9.496   .     S
V98     V67    10.261   1_556     S
V98     Er69    10.02   1_556     S
V98     Ti152    10.677   .     S
V98     Ti158    10.677   1_656     S
V98     V107    9.568   1_556     S
Er99     Er87    9.703   1_556     S
Er99     Er129    9.703   1_655     S
Er99     Er138    9.703   .     S
Er99     V70    10.02   1_655     S
Er99     V67    10.02   1_556     S
V100     Er102    9.496   .     S
V100     V26    10.261   1_655     S
V100     Er27    10.02   1_655     S
V100     Ti152    10.677   .     S
V100     Ti150    10.677   1_655     S
V100     V101    9.159   .     S
V100     V95    9.568   1_655     S
V101     Er102    9.496   .     S
V101     Ti152    10.677   .     S
V101     Ti150    10.677   1_655     S
V101     V104    9.568   .     S
Er102     Er126    9.703   .     S
Er102     Er111    9.703   1_655     S
Er102     V26    10.02   1_655     S
V103     Er105    9.496   .     S
V103     V19    10.261   1_655     S
V103     V37    10.261   1_556     S
V103     Er21    10.02   1_655     S
V103     Er39    10.02   1_556     S
V103     Ti155    10.677   1_556     S
V103     Ti150    10.677   1_655     S
V103     V104    9.159   .     S
V103     V94    9.568   1_655     S
V103     V106    9.568   1_556     S
V104     Er105    9.496   .     S
V104     Ti155    10.677   1_556     S
V104     Ti150    10.677   1_655     S
Er105     Er81    9.703   1_545     S
Er105     Er138    9.703   1_545     S
Er105     Er87    9.703   1_546     S
Er105     Er129    9.703   1_645     S
Er105     V19    10.02   1_655     S
Er105     V37    10.02   1_556     S
V106     Er108    9.496   .     S
V106     V59    10.261   1_655     S
V106     Er60    10.02   1_655     S
V106     Ti155    10.677   .     S
V106     Ti158    10.677   1_655     S
V106     V107    9.159   .     S
V106     V94    9.568   1_654     S
V106     V103    9.568   1_554     S
V107     Er108    9.496   .     S
V107     Ti155    10.677   .     S
V107     Ti158    10.677   1_655     S
V107     V98    9.568   1_554     S
V107     V91    9.568   1_554     S
Er108     Er126    9.703   .     S
Er108     Er111    9.703   1_655     S
Er108     V59    10.02   1_655     S
V109     Er111    9.496   .     S
V109     Ti149    10.677   .     S
V109     Ti146    10.677   .     S
V109     V110    9.159   .     S
V109     V113    9.568   .     S
V109     V121    9.568   .     S
V110     Er111    9.496   .     S
V110     Ti149    10.677   .     S
V110     Ti146    10.677   .     S
V110     V115    9.568   .     S
V110     V118    9.568   .     S
Er111     Er75    9.703   1_455     S
Er111     Er102    9.703   1_455     S
Er111     Er108    9.703   1_455     S
Er111     Er84    9.703   1_455     S
V112     Er114    9.496   .     S
V112     Ti146    10.677   .     S
V112     Ti159    10.677   .     S
V112     V113    9.159   .     S
V112     V119    9.568   .     S
V112     V124    9.568   .     S
V113     Er114    9.496   .     S
V113     Ti146    10.677   .     S
V113     Ti159    10.677   .     S
V113     V121    9.568   .     S
Er114     Er132    9.703   .     S
Er114     Er141    9.703   .     S
V115     Er117    9.496   .     S
V115     Ti149    10.677   .     S
V115     Ti147    10.677   .     S
V115     V116    9.159   .     S
V115     V118    9.568   .     S
V116     Er117    9.496   .     S
V116     Ti149    10.677   .     S
V116     Ti147    10.677   .     S
V116     V122    9.568   .     S
V116     V125    9.568   .     S
Er117     Er93    9.703   1_554     S
Er117     Er96    9.703   1_554     S
Er117     Er141    9.703   1_554     S
Er117     Er132    9.703   1_554     S
V118     Er120    9.496   .     S
V118     Ti147    10.677   .     S
V118     Ti146    10.677   .     S
V118     V119    9.159   .     S
V119     Er120    9.496   .     S
V119     Ti147    10.677   .     S
V119     Ti146    10.677   .     S
V119     V124    9.568   .     S
Er120     Er144    9.703   1_545     S
Er120     Er90    9.703   1_545     S
Er120     Er78    9.703   1_545     S
Er120     Er135    9.703   1_545     S
V121     Er123    9.496   .     S
V121     Ti149    10.677   .     S
V121     Ti159    10.677   .     S
V121     V122    9.159   .     S
V122     Er123    9.496   .     S
V122     Ti149    10.677   .     S
V122     Ti159    10.677   .     S
V122     V125    9.568   .     S
Er123     Er135    9.703   .     S
Er123     Er144    9.703   .     S
V124     Er126    9.496   .     S
V124     Ti147    10.677   .     S
V124     Ti159    10.677   .     S
V124     V125    9.159   .     S
V125     Er126    9.496   .     S
V125     Ti147    10.677   .     S
V125     Ti159    10.677   .     S
V127     Er129    9.496   .     S
V127     V19    10.261   1_565     S
V127     V56    10.261   1_556     S
V127     Er21    10.02   1_565     S
V127     Er57    10.02   1_556     S
V127     Ti154    10.677   1_556     S
V127     Ti148    10.677   1_565     S
V127     V128    9.159   .     S
V127     V133    9.568   1_556     S
V127     V130    9.568   1_565     S
V128     Er129    9.496   .     S
V128     Ti154    10.677   1_556     S
V128     Ti148    10.677   1_565     S
V128     V140    9.568   .     S
V128     V143    9.568   .     S
Er129     Er81    9.703   1_455     S
Er129     Er99    9.703   1_455     S
Er129     Er87    9.703   1_456     S
Er129     Er105    9.703   1_465     S
Er129     V19    10.02   1_565     S
Er129     V56    10.02   1_556     S
V130     Er132    9.496   .     S
V130     V41    10.261   1_556     S
V130     Er42    10.02   1_556     S
V130     Ti148    10.677   .     S
V130     Ti157    10.677   1_556     S
V130     V131    9.159   .     S
V130     V127    9.568   1_545     S
V130     V133    9.568   1_546     S
V131     Er132    9.496   .     S
V131     Ti148    10.677   .     S
V131     Ti157    10.677   1_556     S
V131     V137    9.568   1_545     S
V131     V142    9.568   1_545     S
Er132     Er117    9.703   1_556     S
Er132     V41    10.02   1_556     S
V133     Er135    9.496   .     S
V133     V40    10.261   1_565     S
V133     Er42    10.02   1_565     S
V133     Ti154    10.677   .     S
V133     Ti157    10.677   1_565     S
V133     V134    9.159   .     S
V133     V127    9.568   1_554     S
V133     V130    9.568   1_564     S
V134     Er135    9.496   .     S
V134     Ti154    10.677   .     S
V134     Ti157    10.677   1_565     S
V134     V136    9.568   1_554     S
V134     V139    9.568   1_554     S
Er135     Er120    9.703   1_565     S
Er135     V40    10.02   1_565     S
V136     Er138    9.496   .     S
V136     V49    10.261   1_556     S
V136     Er51    10.02   1_556     S
V136     Ti157    10.677   1_566     S
V136     Ti160    10.677   .     S
V136     V137    9.159   .     S
V136     V134    9.568   1_556     S
V136     V139    9.568   .     S
V137     Er138    9.496   .     S
V137     V52    10.261   1_565     S
V137     Er54    10.02   1_565     S
V137     Ti157    10.677   1_566     S
V137     Ti160    10.677   .     S
V137     V131    9.568   1_565     S
V137     V142    9.568   .     S
Er138     Er87    9.703   1_556     S
Er138     Er105    9.703   1_565     S
Er138     V52    10.02   1_565     S
Er138     V49    10.02   1_556     S
V139     Er141    9.496   .     S
V139     V65    10.261   1_556     S
V139     Er66    10.02   1_556     S
V139     Ti154    10.677   1_556     S
V139     Ti160    10.677   .     S
V139     V140    9.159   .     S
V139     V134    9.568   1_556     S
V140     Er141    9.496   .     S
V140     Ti154    10.677   1_556     S
V140     Ti160    10.677   .     S
V140     V143    9.568   .     S
Er141     Er117    9.703   1_556     S
Er141     V65    10.02   1_556     S
V142     Er144    9.496   .     S
V142     V29    10.261   1_565     S
V142     Er30    10.02   1_565     S
V142     Ti148    10.677   1_565     S
V142     Ti160    10.677   .     S
V142     V143    9.159   .     S
V142     V131    9.568   1_565     S
V143     Er144    9.496   .     S
V143     Ti148    10.677   1_565     S
V143     Ti160    10.677   .     S
Er144     Er120    9.703   1_565     S
Er144     V29    10.02   1_565     S
Ti145     V82    10.677   1_455     S
Ti145     V83    10.677   1_455     S
Ti145     V86    10.677   1_455     S
Ti145     V85    10.677   1_455     S
Ti145     V68    10.677   1_455     S
Ti145     V67    10.677   1_455     S
Ti148     V143    10.677   1_545     S
Ti148     V142    10.677   1_545     S
Ti148     V128    10.677   1_545     S
Ti148     V127    10.677   1_545     S
Ti148     V35    10.677   1_545     S
Ti148     V34    10.677   1_545     S
Ti150     V101    10.677   1_455     S
Ti150     V100    10.677   1_455     S
Ti150     V103    10.677   1_455     S
Ti150     V104    10.677   1_455     S
Ti150     V31    10.677   1_455     S
Ti150     V32    10.677   1_455     S
Ti151     V76    10.677   1_545     S
Ti151     V77    10.677   1_545     S
Ti151     V86    10.677   1_545     S
Ti151     V85    10.677   1_545     S
Ti151     V49    10.677   1_545     S
Ti151     V50    10.677   1_545     S
Ti154     V140    10.677   1_554     S
Ti154     V139    10.677   1_554     S
Ti154     V127    10.677   1_554     S
Ti154     V128    10.677   1_554     S
Ti154     V70    10.677   1_554     S
Ti154     V71    10.677   1_554     S
Ti155     V92    10.677   1_554     S
Ti155     V91    10.677   1_554     S
Ti155     V103    10.677   1_554     S
Ti155     V104    10.677   1_554     S
Ti155     V52    10.677   1_554     S
Ti155     V53    10.677   1_554     S
Ti156     V73    10.677   1_455     S
Ti156     V74    10.677   1_455     S
Ti156     V88    10.677   1_545     S
Ti156     V89    10.677   1_545     S
Ti156     V79    10.677   1_445     S
Ti156     V80    10.677   1_445     S
Ti156     V34    10.677   1_545     S
Ti156     V35    10.677   1_545     S
Ti156     V31    10.677   1_455     S
Ti156     V32    10.677   1_455     S
Ti157     V133    10.677   1_545     S
Ti157     V134    10.677   1_545     S
Ti157     V130    10.677   1_554     S
Ti157     V131    10.677   1_554     S
Ti157     V137    10.677   1_544     S
Ti157     V136    10.677   1_544     S
Ti157     V52    10.677   1_554     S
Ti157     V53    10.677   1_554     S
Ti157     V49    10.677   1_545     S
Ti157     V50    10.677   1_545     S
Ti158     V106    10.677   1_455     S
Ti158     V107    10.677   1_455     S
Ti158     V94    10.677   1_554     S
Ti158     V95    10.677   1_554     S
Ti158     V97    10.677   1_454     S
Ti158     V98    10.677   1_454     S
Ti158     V70    10.677   1_554     S
Ti158     V71    10.677   1_554     S
Ti158     V67    10.677   1_455     S
Ti158     V68    10.677   1_455     S
