data_meta
_audit_creation_date              2020-02-04
_audit_creation_method            'Pymatgen'
_symmetry_space_group_name_H-M    'P1'
_symmetry_Int_Tables_number       1
loop_
_symmetry_equiv_pos_as_xyz
  x,y,z
_cell_length_a                    105.0987
_cell_length_b                    105.0987
_cell_length_c                    105.0987
_cell_angle_alpha                 90.0
_cell_angle_beta                 90.0
_cell_angle_gamma                 90.0
loop_
_atom_site_label
_atom_site_type_symbol
_atom_site_fract_x
_atom_site_fract_y
_atom_site_fract_z
Er1     Er     0.625   0.7772   0.625
Ti2     Ti     0.625   0.6905   0.625
V3     V     0.5894   0.8524   0.6606
V4     V     0.6606   0.8524   0.5894
Er5     Er     0.7772   0.625   0.625
Ti6     Ti     0.6905   0.625   0.625
V7     V     0.8524   0.6606   0.5894
V8     V     0.8524   0.5894   0.6606
Er9     Er     0.625   0.4728   0.625
Ti10     Ti     0.625   0.5595   0.625
V11     V     0.6606   0.3976   0.6606
V12     V     0.5894   0.3976   0.5894
Er13     Er     0.4728   0.625   0.625
Ti14     Ti     0.5595   0.625   0.625
V15     V     0.3976   0.5894   0.5894
V16     V     0.3976   0.6606   0.6606
Er17     Er     0.625   0.625   0.4728
Ti18     Ti     0.625   0.625   0.5595
V19     V     0.5894   0.5894   0.3976
V20     V     0.6606   0.6606   0.3976
Er21     Er     0.625   0.625   0.7772
Ti22     Ti     0.625   0.625   0.6905
V23     V     0.5894   0.6606   0.8524
V24     V     0.6606   0.5894   0.8524
Ce25     Ce     0.524   0.4546   0.4546
Ce26     Ce     0.5454   0.5454   0.476
Ce27     Ce     0.5454   0.476   0.5454
Ce28     Ce     0.4546   0.4546   0.524
Ce29     Ce     0.476   0.5454   0.5454
Ce30     Ce     0.4546   0.524   0.4546
Ce31     Ce     0.4546   0.024   0.9546
Ce32     Ce     0.4546   0.9546   0.024
Ce33     Ce     0.476   0.0454   0.0454
Ce34     Ce     0.524   0.9546   0.9546
Ce35     Ce     0.5454   0.0454   0.976
Ce36     Ce     0.5454   0.976   0.0454
Ce37     Ce     0.024   0.9546   0.4546
Ce38     Ce     0.9546   0.024   0.4546
Ce39     Ce     0.0454   0.0454   0.476
Ce40     Ce     0.9546   0.9546   0.524
Ce41     Ce     0.0454   0.976   0.5454
Ce42     Ce     0.976   0.0454   0.5454
Ce43     Ce     0.9546   0.4546   0.024
Ce44     Ce     0.024   0.4546   0.9546
Ce45     Ce     0.0454   0.476   0.0454
Ce46     Ce     0.9546   0.524   0.9546
Ce47     Ce     0.0454   0.5454   0.976
Ce48     Ce     0.976   0.5454   0.0454
Ce49     Ce     0.524   0.2954   0.2954
Ce50     Ce     0.5454   0.274   0.2046
Ce51     Ce     0.4546   0.2954   0.226
Ce52     Ce     0.5454   0.2046   0.274
Ce53     Ce     0.4546   0.226   0.2954
Ce54     Ce     0.476   0.2046   0.2046
Ce55     Ce     0.0454   0.274   0.7046
Ce56     Ce     0.9546   0.2954   0.726
Ce57     Ce     0.976   0.2046   0.7046
Ce58     Ce     0.9546   0.226   0.7954
Ce59     Ce     0.0454   0.2046   0.774
Ce60     Ce     0.024   0.2954   0.7954
Er61     Er     0.125   0.125   0.7772
Ti62     Ti     0.125   0.125   0.6905
V63     V     0.0894   0.1606   0.8524
V64     V     0.1606   0.0894   0.8524
Er65     Er     0.125   0.125   0.4728
Ti66     Ti     0.125   0.125   0.5595
V67     V     0.0894   0.0894   0.3976
V68     V     0.1606   0.1606   0.3976
Er69     Er     0.125   0.2772   0.625
Ti70     Ti     0.125   0.1905   0.625
V71     V     0.1606   0.3524   0.5894
V72     V     0.0894   0.3524   0.6606
Er73     Er     0.2772   0.125   0.625
Ti74     Ti     0.1905   0.125   0.625
V75     V     0.3524   0.0894   0.6606
V76     V     0.3524   0.1606   0.5894
Er77     Er     0.9728   0.125   0.625
Ti78     Ti     0.0595   0.125   0.625
V79     V     0.8976   0.0894   0.5894
V80     V     0.8976   0.1606   0.6606
Er81     Er     0.125   0.9728   0.625
Ti82     Ti     0.125   0.0595   0.625
V83     V     0.0894   0.8976   0.5894
V84     V     0.1606   0.8976   0.6606
Ce85     Ce     0.274   0.0454   0.7046
Ce86     Ce     0.2954   0.9546   0.726
Ce87     Ce     0.2046   0.976   0.7046
Ce88     Ce     0.226   0.9546   0.7954
Ce89     Ce     0.2954   0.024   0.7954
Ce90     Ce     0.2046   0.0454   0.774
Er91     Er     0.125   0.7772   0.125
Ti92     Ti     0.125   0.6905   0.125
V93     V     0.1606   0.8524   0.0894
V94     V     0.0894   0.8524   0.1606
Er95     Er     0.125   0.4728   0.125
Ti96     Ti     0.125   0.5595   0.125
V97     V     0.1606   0.3976   0.1606
V98     V     0.0894   0.3976   0.0894
Er99     Er     0.125   0.625   0.2772
Ti100     Ti     0.125   0.625   0.1905
V101     V     0.0894   0.6606   0.3524
V102     V     0.1606   0.5894   0.3524
Er103     Er     0.2772   0.625   0.125
Ti104     Ti     0.1905   0.625   0.125
V105     V     0.3524   0.5894   0.1606
V106     V     0.3524   0.6606   0.0894
Er107     Er     0.9728   0.625   0.125
Ti108     Ti     0.0595   0.625   0.125
V109     V     0.8976   0.5894   0.0894
V110     V     0.8976   0.6606   0.1606
Er111     Er     0.125   0.625   0.9728
Ti112     Ti     0.125   0.625   0.0595
V113     V     0.0894   0.5894   0.8976
V114     V     0.1606   0.6606   0.8976
Ce115     Ce     0.2046   0.274   0.5454
Ce116     Ce     0.2954   0.2954   0.524
Ce117     Ce     0.274   0.2046   0.5454
Ce118     Ce     0.2954   0.226   0.4546
Ce119     Ce     0.2046   0.2046   0.476
Ce120     Ce     0.226   0.2954   0.4546
Ce121     Ce     0.2954   0.4546   0.226
Ce122     Ce     0.2046   0.476   0.2046
Ce123     Ce     0.226   0.4546   0.2954
Ce124     Ce     0.2046   0.5454   0.274
Ce125     Ce     0.274   0.5454   0.2046
Ce126     Ce     0.2954   0.524   0.2954
Er127     Er     0.375   0.5272   0.375
Ti128     Ti     0.375   0.4405   0.375
V129     V     0.3394   0.6024   0.3394
V130     V     0.4106   0.6024   0.4106
Er131     Er     0.5272   0.375   0.375
Ti132     Ti     0.4405   0.375   0.375
V133     V     0.6024   0.4106   0.4106
V134     V     0.6024   0.3394   0.3394
Er135     Er     0.375   0.375   0.5272
Ti136     Ti     0.375   0.375   0.4405
V137     V     0.3394   0.3394   0.6024
V138     V     0.4106   0.4106   0.6024
Er139     Er     0.375   0.2228   0.375
Ti140     Ti     0.375   0.3095   0.375
V141     V     0.4106   0.1476   0.3394
V142     V     0.3394   0.1476   0.4106
Er143     Er     0.375   0.375   0.2228
Ti144     Ti     0.375   0.375   0.3095
V145     V     0.3394   0.4106   0.1476
V146     V     0.4106   0.3394   0.1476
Er147     Er     0.2228   0.375   0.375
Ti148     Ti     0.3095   0.375   0.375
V149     V     0.1476   0.3394   0.4106
V150     V     0.1476   0.4106   0.3394
Ce151     Ce     0.5454   0.7046   0.774
Ce152     Ce     0.4546   0.726   0.7954
Ce153     Ce     0.476   0.7046   0.7046
Ce154     Ce     0.5454   0.774   0.7046
Ce155     Ce     0.4546   0.7954   0.726
Ce156     Ce     0.524   0.7954   0.7954
Ce157     Ce     0.2954   0.726   0.9546
Ce158     Ce     0.274   0.7046   0.0454
Ce159     Ce     0.2046   0.7046   0.976
Ce160     Ce     0.226   0.7954   0.9546
Ce161     Ce     0.2954   0.7954   0.024
Ce162     Ce     0.2046   0.774   0.0454
Er163     Er     0.375   0.0272   0.875
Ti164     Ti     0.375   0.9405   0.875
V165     V     0.3394   0.1024   0.8394
V166     V     0.4106   0.1024   0.9106
Er167     Er     0.375   0.875   0.0272
Ti168     Ti     0.375   0.875   0.9405
V169     V     0.3394   0.8394   0.1024
V170     V     0.4106   0.9106   0.1024
Er171     Er     0.375   0.875   0.7228
Ti172     Ti     0.375   0.875   0.8095
V173     V     0.4106   0.8394   0.6476
V174     V     0.3394   0.9106   0.6476
Er175     Er     0.375   0.7228   0.875
Ti176     Ti     0.375   0.8095   0.875
V177     V     0.3394   0.6476   0.9106
V178     V     0.4106   0.6476   0.8394
Er179     Er     0.5272   0.875   0.875
Ti180     Ti     0.4405   0.875   0.875
V181     V     0.6024   0.9106   0.9106
V182     V     0.6024   0.8394   0.8394
Er183     Er     0.2228   0.875   0.875
Ti184     Ti     0.3095   0.875   0.875
V185     V     0.1476   0.8394   0.9106
V186     V     0.1476   0.9106   0.8394
Ce187     Ce     0.774   0.7046   0.5454
Ce188     Ce     0.7954   0.726   0.4546
Ce189     Ce     0.7046   0.7046   0.476
Ce190     Ce     0.7046   0.774   0.5454
Ce191     Ce     0.726   0.7954   0.4546
Ce192     Ce     0.7954   0.7954   0.524
Ce193     Ce     0.0454   0.7046   0.274
Ce194     Ce     0.9546   0.726   0.2954
Ce195     Ce     0.976   0.7046   0.2046
Ce196     Ce     0.9546   0.7954   0.226
Ce197     Ce     0.0454   0.774   0.2046
Ce198     Ce     0.024   0.7954   0.2954
Er199     Er     0.875   0.875   0.5272
Ti200     Ti     0.875   0.875   0.4405
V201     V     0.8394   0.8394   0.6024
V202     V     0.9106   0.9106   0.6024
Er203     Er     0.875   0.0272   0.375
Ti204     Ti     0.875   0.9405   0.375
V205     V     0.8394   0.1024   0.3394
V206     V     0.9106   0.1024   0.4106
Er207     Er     0.7228   0.875   0.375
Ti208     Ti     0.8095   0.875   0.375
V209     V     0.6476   0.8394   0.4106
V210     V     0.6476   0.9106   0.3394
Er211     Er     0.875   0.7228   0.375
Ti212     Ti     0.875   0.8095   0.375
V213     V     0.9106   0.6476   0.3394
V214     V     0.8394   0.6476   0.4106
Er215     Er     0.875   0.875   0.2228
Ti216     Ti     0.875   0.875   0.3095
V217     V     0.9106   0.8394   0.1476
V218     V     0.8394   0.9106   0.1476
Er219     Er     0.0272   0.875   0.375
Ti220     Ti     0.9405   0.875   0.375
V221     V     0.1024   0.8394   0.3394
V222     V     0.1024   0.9106   0.4106
Ce223     Ce     0.7046   0.5454   0.774
Ce224     Ce     0.726   0.4546   0.7954
Ce225     Ce     0.7046   0.476   0.7046
Ce226     Ce     0.774   0.5454   0.7046
Ce227     Ce     0.7954   0.4546   0.726
Ce228     Ce     0.7954   0.524   0.7954
Er229     Er     0.0272   0.375   0.875
Ti230     Ti     0.9405   0.375   0.875
V231     V     0.1024   0.3394   0.8394
V232     V     0.1024   0.4106   0.9106
Er233     Er     0.875   0.375   0.0272
Ti234     Ti     0.875   0.375   0.9405
V235     V     0.8394   0.3394   0.1024
V236     V     0.9106   0.4106   0.1024
Er237     Er     0.875   0.375   0.7228
Ti238     Ti     0.875   0.375   0.8095
V239     V     0.9106   0.3394   0.6476
V240     V     0.8394   0.4106   0.6476
Er241     Er     0.7228   0.375   0.875
Ti242     Ti     0.8095   0.375   0.875
V243     V     0.6476   0.3394   0.9106
V244     V     0.6476   0.4106   0.8394
Er245     Er     0.875   0.5272   0.875
Ti246     Ti     0.875   0.4405   0.875
V247     V     0.8394   0.6024   0.8394
V248     V     0.9106   0.6024   0.9106
Er249     Er     0.875   0.2228   0.875
Ti250     Ti     0.875   0.3095   0.875
V251     V     0.8394   0.1476   0.9106
V252     V     0.9106   0.1476   0.8394
Ce253     Ce     0.7046   0.976   0.2046
Ce254     Ce     0.7954   0.9546   0.226
Ce255     Ce     0.774   0.0454   0.2046
Ce256     Ce     0.7954   0.024   0.2954
Ce257     Ce     0.7046   0.0454   0.274
Ce258     Ce     0.726   0.9546   0.2954
Ce259     Ce     0.7954   0.226   0.9546
Ce260     Ce     0.7046   0.2046   0.976
Ce261     Ce     0.7046   0.274   0.0454
Ce262     Ce     0.726   0.2954   0.9546
Ce263     Ce     0.7954   0.2954   0.024
Ce264     Ce     0.774   0.2046   0.0454
Er265     Er     0.4728   0.125   0.125
Ti266     Ti     0.5595   0.125   0.125
V267     V     0.3976   0.0894   0.0894
V268     V     0.3976   0.1606   0.1606
Er269     Er     0.7772   0.125   0.125
Ti270     Ti     0.6905   0.125   0.125
V271     V     0.8524   0.0894   0.1606
V272     V     0.8524   0.1606   0.0894
Er273     Er     0.625   0.125   0.9728
Ti274     Ti     0.625   0.125   0.0595
V275     V     0.5894   0.0894   0.8976
V276     V     0.6606   0.1606   0.8976
Er277     Er     0.625   0.2772   0.125
Ti278     Ti     0.625   0.1905   0.125
V279     V     0.6606   0.3524   0.0894
V280     V     0.5894   0.3524   0.1606
Er281     Er     0.625   0.125   0.2772
Ti282     Ti     0.625   0.125   0.1905
V283     V     0.6606   0.0894   0.3524
V284     V     0.5894   0.1606   0.3524
Er285     Er     0.625   0.9728   0.125
Ti286     Ti     0.625   0.0595   0.125
V287     V     0.6606   0.8976   0.1606
V288     V     0.5894   0.8976   0.0894
loop_
_geom_bond_atom_site_label_1
_geom_bond_atom_site_label_2
_geom_bond_distance
_geom_bond_site_symmetry_2
_ccdc_geom_bond_type
Er1     V3    9.515   .     S
Er1     V4    9.515   .     S
Er1     Ti2    9.109   .     S
Ti2     Ti14    9.741   .     S
Ti2     Ti18    9.741   .     S
Ti2     Ti22    9.741   .     S
Ti2     Ti6    9.741   .     S
V3     Ce154    10.52   .     S
V3     V4    10.586   .     S
V4     Ce190    10.52   .     S
Er5     V8    9.515   .     S
Er5     V7    9.515   .     S
Er5     Ti6    9.109   .     S
Ti6     Ti18    9.741   .     S
Ti6     Ti10    9.741   .     S
Ti6     Ti22    9.741   .     S
V7     Ce187    10.52   .     S
V7     V8    10.586   .     S
V8     Ce226    10.52   .     S
Er9     V12    9.515   .     S
Er9     V11    9.515   .     S
Er9     Ti10    9.109   .     S
Ti10     Ti14    9.741   .     S
Ti10     Ti18    9.741   .     S
Ti10     Ti22    9.741   .     S
V11     Ce225    10.52   .     S
V11     V12    10.586   .     S
V12     Ce27    10.52   .     S
Er13     V15    9.515   .     S
Er13     V16    9.515   .     S
Er13     Ti14    9.109   .     S
Ti14     Ti18    9.741   .     S
Ti14     Ti22    9.741   .     S
V15     Ce29    10.52   .     S
V15     V16    10.586   .     S
V16     Ce153    10.52   .     S
Er17     V19    9.515   .     S
Er17     V20    9.515   .     S
Er17     Ti18    9.109   .     S
V19     Ce26    10.52   .     S
V19     V20    10.586   .     S
V20     Ce189    10.52   .     S
Er21     V24    9.515   .     S
Er21     V23    9.515   .     S
Er21     Ti22    9.109   .     S
V23     Ce151    10.52   .     S
V23     V24    10.586   .     S
V24     Ce223    10.52   .     S
Ce25     Ce30    10.32   .     S
Ce25     Ce28    10.32   .     S
Ce25     Ce26    10.058   .     S
Ce25     Ce27    10.058   .     S
Ce25     V133    10.52   .     S
Ce26     Ce29    10.32   .     S
Ce26     Ce27    10.32   .     S
Ce26     Ce30    10.058   .     S
Ce27     Ce29    10.32   .     S
Ce27     Ce28    10.058   .     S
Ce28     Ce30    10.32   .     S
Ce28     Ce29    10.058   .     S
Ce28     V138    10.52   .     S
Ce29     Ce30    10.058   .     S
Ce30     V130    10.52   .     S
Ce31     Ce34    10.32   1_545     S
Ce31     Ce32    10.32   1_546     S
Ce31     Ce33    10.058   1_556     S
Ce31     Ce35    10.058   .     S
Ce31     V166    10.52   .     S
Ce32     Ce34    10.32   1_554     S
Ce32     Ce31    10.32   1_564     S
Ce32     Ce33    10.058   1_565     S
Ce32     Ce36    10.058   .     S
Ce32     V170    10.52   .     S
Ce33     Ce35    10.32   1_554     S
Ce33     Ce36    10.32   1_545     S
Ce33     Ce31    10.058   1_554     S
Ce33     Ce32    10.058   1_545     S
Ce33     V267    10.52   .     S
Ce34     Ce32    10.32   1_556     S
Ce34     Ce31    10.32   1_565     S
Ce34     Ce35    10.058   1_565     S
Ce34     Ce36    10.058   1_556     S
Ce34     V181    10.52   .     S
Ce35     Ce33    10.32   1_556     S
Ce35     Ce36    10.32   1_546     S
Ce35     Ce34    10.058   1_545     S
Ce35     V275    10.52   .     S
Ce36     Ce33    10.32   1_565     S
Ce36     Ce35    10.32   1_564     S
Ce36     Ce34    10.058   1_554     S
Ce36     V288    10.52   .     S
Ce37     Ce40    10.32   1_455     S
Ce37     Ce38    10.32   1_465     S
Ce37     Ce39    10.058   1_565     S
Ce37     Ce41    10.058   .     S
Ce37     V222    10.52   .     S
Ce38     Ce40    10.32   1_545     S
Ce38     Ce37    10.32   1_645     S
Ce38     Ce39    10.058   1_655     S
Ce38     Ce42    10.058   .     S
Ce38     V206    10.52   .     S
Ce39     Ce41    10.32   1_545     S
Ce39     Ce42    10.32   1_455     S
Ce39     Ce37    10.058   1_545     S
Ce39     Ce38    10.058   1_455     S
Ce39     V67    10.52   .     S
Ce40     Ce37    10.32   1_655     S
Ce40     Ce38    10.32   1_565     S
Ce40     Ce41    10.058   1_655     S
Ce40     Ce42    10.058   1_565     S
Ce40     V202    10.52   .     S
Ce41     Ce39    10.32   1_565     S
Ce41     Ce42    10.32   1_465     S
Ce41     Ce40    10.058   1_455     S
Ce41     V83    10.52   .     S
Ce42     Ce39    10.32   1_655     S
Ce42     Ce41    10.32   1_645     S
Ce42     Ce40    10.058   1_545     S
Ce42     V79    10.52   .     S
Ce43     Ce46    10.32   1_554     S
Ce43     Ce44    10.32   1_654     S
Ce43     Ce45    10.058   1_655     S
Ce43     Ce48    10.058   .     S
Ce43     V236    10.52   .     S
Ce44     Ce46    10.32   1_455     S
Ce44     Ce43    10.32   1_456     S
Ce44     Ce45    10.058   1_556     S
Ce44     Ce47    10.058   .     S
Ce44     V232    10.52   .     S
Ce45     Ce48    10.32   1_455     S
Ce45     Ce47    10.32   1_554     S
Ce45     Ce43    10.058   1_455     S
Ce45     Ce44    10.058   1_554     S
Ce45     V98    10.52   .     S
Ce46     Ce43    10.32   1_556     S
Ce46     Ce44    10.32   1_655     S
Ce46     Ce47    10.058   1_655     S
Ce46     Ce48    10.058   1_556     S
Ce46     V248    10.52   .     S
Ce47     Ce45    10.32   1_556     S
Ce47     Ce48    10.32   1_456     S
Ce47     Ce46    10.058   1_455     S
Ce47     V113    10.52   .     S
Ce48     Ce45    10.32   1_655     S
Ce48     Ce47    10.32   1_654     S
Ce48     Ce46    10.058   1_554     S
Ce48     V109    10.52   .     S
Ce49     Ce51    10.32   .     S
Ce49     Ce53    10.32   .     S
Ce49     Ce50    10.058   .     S
Ce49     Ce52    10.058   .     S
Ce49     V134    10.52   .     S
Ce50     Ce54    10.32   .     S
Ce50     Ce52    10.32   .     S
Ce50     Ce51    10.058   .     S
Ce50     V280    10.52   .     S
Ce51     Ce53    10.32   .     S
Ce51     Ce54    10.058   .     S
Ce51     V146    10.52   .     S
Ce52     Ce54    10.32   .     S
Ce52     Ce53    10.058   .     S
Ce52     V284    10.52   .     S
Ce53     Ce54    10.058   .     S
Ce53     V141    10.52   .     S
Ce54     V268    10.52   .     S
Ce55     Ce59    10.32   .     S
Ce55     Ce57    10.32   1_455     S
Ce55     Ce60    10.058   .     S
Ce55     Ce56    10.058   1_455     S
Ce55     V72    10.52   .     S
Ce56     Ce58    10.32   .     S
Ce56     Ce60    10.32   1_655     S
Ce56     Ce55    10.058   1_655     S
Ce56     Ce57    10.058   .     S
Ce56     V239    10.52   .     S
Ce57     Ce55    10.32   1_655     S
Ce57     Ce59    10.32   1_655     S
Ce57     Ce58    10.058   .     S
Ce57     V80    10.52   .     S
Ce58     Ce60    10.32   1_655     S
Ce58     Ce59    10.058   1_655     S
Ce58     V252    10.52   .     S
Ce59     Ce57    10.32   1_455     S
Ce59     Ce58    10.058   1_455     S
Ce59     Ce60    10.058   .     S
Ce59     V63    10.52   .     S
Ce60     Ce58    10.32   1_455     S
Ce60     Ce56    10.32   1_455     S
Ce60     V231    10.52   .     S
Er61     V63    9.515   .     S
Er61     V64    9.515   .     S
Er61     Ti62    9.109   .     S
Ti62     Ti82    9.741   .     S
Ti62     Ti74    9.741   .     S
Ti62     Ti78    9.741   .     S
Ti62     Ti70    9.741   .     S
V63     V64    10.586   .     S
V64     Ce90    10.52   .     S
Er65     V67    9.515   .     S
Er65     V68    9.515   .     S
Er65     Ti66    9.109   .     S
Ti66     Ti78    9.741   .     S
Ti66     Ti82    9.741   .     S
Ti66     Ti74    9.741   .     S
Ti66     Ti70    9.741   .     S
V67     V68    10.586   .     S
V68     Ce119    10.52   .     S
Er69     V71    9.515   .     S
Er69     V72    9.515   .     S
Er69     Ti70    9.109   .     S
Ti70     Ti78    9.741   .     S
Ti70     Ti74    9.741   .     S
V71     Ce115    10.52   .     S
V71     V72    10.586   .     S
Er73     V76    9.515   .     S
Er73     V75    9.515   .     S
Er73     Ti74    9.109   .     S
Ti74     Ti82    9.741   .     S
V75     Ce85    10.52   .     S
V75     V76    10.586   .     S
V76     Ce117    10.52   .     S
Er77     V79    9.515   .     S
Er77     V80    9.515   .     S
Er77     Ti78    9.109   1_655     S
Ti78     Er77    9.109   1_455     S
Ti78     Ti82    9.741   .     S
V79     V80    10.586   .     S
Er81     V83    9.515   .     S
Er81     V84    9.515   .     S
Er81     Ti82    9.109   1_565     S
Ti82     Er81    9.109   1_545     S
V83     V84    10.586   .     S
V84     Ce87    10.52   .     S
Ce85     Ce90    10.32   .     S
Ce85     Ce87    10.32   1_545     S
Ce85     Ce89    10.058   .     S
Ce85     Ce86    10.058   1_545     S
Ce86     Ce89    10.32   1_565     S
Ce86     Ce88    10.32   .     S
Ce86     Ce85    10.058   1_565     S
Ce86     Ce87    10.058   .     S
Ce86     V174    10.52   .     S
Ce87     Ce85    10.32   1_565     S
Ce87     Ce90    10.32   1_565     S
Ce87     Ce88    10.058   .     S
Ce88     Ce89    10.32   1_565     S
Ce88     Ce90    10.058   1_565     S
Ce88     V186    10.52   .     S
Ce89     Ce86    10.32   1_545     S
Ce89     Ce88    10.32   1_545     S
Ce89     Ce90    10.058   .     S
Ce89     V165    10.52   .     S
Ce90     Ce87    10.32   1_545     S
Ce90     Ce88    10.058   1_545     S
Er91     V93    9.515   .     S
Er91     V94    9.515   .     S
Er91     Ti92    9.109   .     S
Ti92     Ti100    9.741   .     S
Ti92     Ti112    9.741   .     S
Ti92     Ti104    9.741   .     S
Ti92     Ti108    9.741   .     S
V93     Ce162    10.52   .     S
V93     V94    10.586   .     S
V94     Ce197    10.52   .     S
Er95     V98    9.515   .     S
Er95     V97    9.515   .     S
Er95     Ti96    9.109   .     S
Ti96     Ti100    9.741   .     S
Ti96     Ti108    9.741   .     S
Ti96     Ti112    9.741   .     S
Ti96     Ti104    9.741   .     S
V97     Ce122    10.52   .     S
V97     V98    10.586   .     S
Er99     V102    9.515   .     S
Er99     V101    9.515   .     S
Er99     Ti100    9.109   .     S
Ti100     Ti104    9.741   .     S
Ti100     Ti108    9.741   .     S
V101     Ce193    10.52   .     S
V101     V102    10.586   .     S
V102     Ce124    10.52   .     S
Er103     V105    9.515   .     S
Er103     V106    9.515   .     S
Er103     Ti104    9.109   .     S
Ti104     Ti112    9.741   .     S
V105     Ce125    10.52   .     S
V105     V106    10.586   .     S
V106     Ce158    10.52   .     S
Er107     V109    9.515   .     S
Er107     V110    9.515   .     S
Er107     Ti108    9.109   1_655     S
Ti108     Er107    9.109   1_455     S
Ti108     Ti112    9.741   .     S
V109     V110    10.586   .     S
V110     Ce195    10.52   .     S
Er111     V113    9.515   .     S
Er111     V114    9.515   .     S
Er111     Ti112    9.109   1_556     S
Ti112     Er111    9.109   1_554     S
V113     V114    10.586   .     S
V114     Ce159    10.52   .     S
Ce115     Ce117    10.32   .     S
Ce115     Ce119    10.32   .     S
Ce115     Ce120    10.058   .     S
Ce115     Ce116    10.058   .     S
Ce116     Ce118    10.32   .     S
Ce116     Ce120    10.32   .     S
Ce116     Ce117    10.058   .     S
Ce116     V137    10.52   .     S
Ce117     Ce119    10.32   .     S
Ce117     Ce118    10.058   .     S
Ce118     Ce120    10.32   .     S
Ce118     Ce119    10.058   .     S
Ce118     V142    10.52   .     S
Ce119     Ce120    10.058   .     S
Ce120     V149    10.52   .     S
Ce121     Ce126    10.32   .     S
Ce121     Ce123    10.32   .     S
Ce121     Ce125    10.058   .     S
Ce121     Ce122    10.058   .     S
Ce121     V145    10.52   .     S
Ce122     Ce124    10.32   .     S
Ce122     Ce125    10.32   .     S
Ce122     Ce123    10.058   .     S
Ce123     Ce126    10.32   .     S
Ce123     Ce124    10.058   .     S
Ce123     V150    10.52   .     S
Ce124     Ce125    10.32   .     S
Ce124     Ce126    10.058   .     S
Ce125     Ce126    10.058   .     S
Ce126     V129    10.52   .     S
Er127     V129    9.515   .     S
Er127     V130    9.515   .     S
Er127     Ti128    9.109   .     S
Ti128     Ti148    9.741   .     S
Ti128     Ti136    9.741   .     S
Ti128     Ti144    9.741   .     S
Ti128     Ti132    9.741   .     S
V129     V130    10.586   .     S
Er131     V134    9.515   .     S
Er131     V133    9.515   .     S
Er131     Ti132    9.109   .     S
Ti132     Ti140    9.741   .     S
Ti132     Ti136    9.741   .     S
Ti132     Ti144    9.741   .     S
V133     V134    10.586   .     S
Er135     V137    9.515   .     S
Er135     V138    9.515   .     S
Er135     Ti136    9.109   .     S
Ti136     Ti148    9.741   .     S
Ti136     Ti140    9.741   .     S
V137     V138    10.586   .     S
Er139     V142    9.515   .     S
Er139     V141    9.515   .     S
Er139     Ti140    9.109   .     S
Ti140     Ti148    9.741   .     S
Ti140     Ti144    9.741   .     S
V141     V142    10.586   .     S
Er143     V145    9.515   .     S
Er143     V146    9.515   .     S
Er143     Ti144    9.109   .     S
Ti144     Ti148    9.741   .     S
V145     V146    10.586   .     S
Er147     V150    9.515   .     S
Er147     V149    9.515   .     S
Er147     Ti148    9.109   .     S
V149     V150    10.586   .     S
Ce151     Ce153    10.32   .     S
Ce151     Ce154    10.32   .     S
Ce151     Ce156    10.058   .     S
Ce151     Ce152    10.058   .     S
Ce152     Ce156    10.32   .     S
Ce152     Ce155    10.32   .     S
Ce152     Ce153    10.058   .     S
Ce152     V178    10.52   .     S
Ce153     Ce154    10.32   .     S
Ce153     Ce155    10.058   .     S
Ce154     Ce156    10.058   .     S
Ce154     Ce155    10.058   .     S
Ce155     Ce156    10.32   .     S
Ce155     V173    10.52   .     S
Ce156     V182    10.52   .     S
Ce157     Ce160    10.32   .     S
Ce157     Ce161    10.32   1_556     S
Ce157     Ce158    10.058   1_556     S
Ce157     Ce159    10.058   .     S
Ce157     V177    10.52   .     S
Ce158     Ce159    10.32   1_554     S
Ce158     Ce162    10.32   .     S
Ce158     Ce157    10.058   1_554     S
Ce158     Ce161    10.058   .     S
Ce159     Ce158    10.32   1_556     S
Ce159     Ce162    10.32   1_556     S
Ce159     Ce160    10.058   .     S
Ce160     Ce161    10.32   1_556     S
Ce160     Ce162    10.058   1_556     S
Ce160     V185    10.52   .     S
Ce161     Ce160    10.32   1_554     S
Ce161     Ce157    10.32   1_554     S
Ce161     Ce162    10.058   .     S
Ce161     V169    10.52   .     S
Ce162     Ce159    10.32   1_554     S
Ce162     Ce160    10.058   1_554     S
Er163     V165    9.515   .     S
Er163     V166    9.515   .     S
Er163     Ti164    9.109   1_545     S
Ti164     Er163    9.109   1_565     S
Ti164     Ti172    9.741   .     S
Ti164     Ti180    9.741   .     S
Ti164     Ti184    9.741   .     S
Ti164     Ti168    9.741   .     S
V165     V166    10.586   .     S
Er167     V169    9.515   .     S
Er167     V170    9.515   .     S
Er167     Ti168    9.109   1_554     S
Ti168     Er167    9.109   1_556     S
Ti168     Ti176    9.741   .     S
Ti168     Ti184    9.741   .     S
Ti168     Ti180    9.741   .     S
V169     V170    10.586   .     S
Er171     V173    9.515   .     S
Er171     V174    9.515   .     S
Er171     Ti172    9.109   .     S
Ti172     Ti180    9.741   .     S
Ti172     Ti184    9.741   .     S
Ti172     Ti176    9.741   .     S
V173     V174    10.586   .     S
Er175     V177    9.515   .     S
Er175     V178    9.515   .     S
Er175     Ti176    9.109   .     S
Ti176     Ti180    9.741   .     S
Ti176     Ti184    9.741   .     S
V177     V178    10.586   .     S
Er179     V181    9.515   .     S
Er179     V182    9.515   .     S
Er179     Ti180    9.109   .     S
V181     V182    10.586   .     S
Er183     V185    9.515   .     S
Er183     V186    9.515   .     S
Er183     Ti184    9.109   .     S
V185     V186    10.586   .     S
Ce187     Ce189    10.32   .     S
Ce187     Ce190    10.32   .     S
Ce187     Ce192    10.058   .     S
Ce187     Ce188    10.058   .     S
Ce188     Ce192    10.32   .     S
Ce188     Ce191    10.32   .     S
Ce188     Ce189    10.058   .     S
Ce188     V214    10.52   .     S
Ce189     Ce190    10.32   .     S
Ce189     Ce191    10.058   .     S
Ce190     Ce192    10.058   .     S
Ce190     Ce191    10.058   .     S
Ce191     Ce192    10.32   .     S
Ce191     V209    10.52   .     S
Ce192     V201    10.52   .     S
Ce193     Ce195    10.32   1_455     S
Ce193     Ce197    10.32   .     S
Ce193     Ce198    10.058   .     S
Ce193     Ce194    10.058   1_455     S
Ce194     Ce196    10.32   .     S
Ce194     Ce198    10.32   1_655     S
Ce194     Ce193    10.058   1_655     S
Ce194     Ce195    10.058   .     S
Ce194     V213    10.52   .     S
Ce195     Ce193    10.32   1_655     S
Ce195     Ce197    10.32   1_655     S
Ce195     Ce196    10.058   .     S
Ce196     Ce198    10.32   1_655     S
Ce196     Ce197    10.058   1_655     S
Ce196     V217    10.52   .     S
Ce197     Ce195    10.32   1_455     S
Ce197     Ce196    10.058   1_455     S
Ce197     Ce198    10.058   .     S
Ce198     Ce196    10.32   1_455     S
Ce198     Ce194    10.32   1_455     S
Ce198     V221    10.52   .     S
Er199     V201    9.515   .     S
Er199     V202    9.515   .     S
Er199     Ti200    9.109   .     S
Ti200     Ti208    9.741   .     S
Ti200     Ti212    9.741   .     S
Ti200     Ti204    9.741   .     S
Ti200     Ti220    9.741   .     S
V201     V202    10.586   .     S
Er203     V205    9.515   .     S
Er203     V206    9.515   .     S
Er203     Ti204    9.109   1_545     S
Ti204     Er203    9.109   1_565     S
Ti204     Ti208    9.741   .     S
Ti204     Ti216    9.741   .     S
Ti204     Ti220    9.741   .     S
V205     Ce256    10.52   .     S
V205     V206    10.586   .     S
Er207     V210    9.515   .     S
Er207     V209    9.515   .     S
Er207     Ti208    9.109   .     S
Ti208     Ti216    9.741   .     S
Ti208     Ti212    9.741   .     S
V209     V210    10.586   .     S
V210     Ce258    10.52   .     S
Er211     V213    9.515   .     S
Er211     V214    9.515   .     S
Er211     Ti212    9.109   .     S
Ti212     Ti216    9.741   .     S
Ti212     Ti220    9.741   .     S
V213     V214    10.586   .     S
Er215     V217    9.515   .     S
Er215     V218    9.515   .     S
Er215     Ti216    9.109   .     S
Ti216     Ti220    9.741   .     S
V217     V218    10.586   .     S
V218     Ce254    10.52   .     S
Er219     V221    9.515   .     S
Er219     V222    9.515   .     S
Er219     Ti220    9.109   1_455     S
Ti220     Er219    9.109   1_655     S
V221     V222    10.586   .     S
Ce223     Ce225    10.32   .     S
Ce223     Ce226    10.32   .     S
Ce223     Ce228    10.058   .     S
Ce223     Ce224    10.058   .     S
Ce224     Ce228    10.32   .     S
Ce224     Ce227    10.32   .     S
Ce224     Ce225    10.058   .     S
Ce224     V244    10.52   .     S
Ce225     Ce226    10.32   .     S
Ce225     Ce227    10.058   .     S
Ce226     Ce228    10.058   .     S
Ce226     Ce227    10.058   .     S
Ce227     Ce228    10.32   .     S
Ce227     V240    10.52   .     S
Ce228     V247    10.52   .     S
Er229     V231    9.515   .     S
Er229     V232    9.515   .     S
Er229     Ti230    9.109   1_455     S
Ti230     Er229    9.109   1_655     S
Ti230     Ti246    9.741   .     S
Ti230     Ti238    9.741   .     S
Ti230     Ti250    9.741   .     S
Ti230     Ti234    9.741   .     S
V231     V232    10.586   .     S
Er233     V235    9.515   .     S
Er233     V236    9.515   .     S
Er233     Ti234    9.109   1_554     S
Ti234     Er233    9.109   1_556     S
Ti234     Ti250    9.741   .     S
Ti234     Ti242    9.741   .     S
Ti234     Ti246    9.741   .     S
V235     Ce263    10.52   .     S
V235     V236    10.586   .     S
Er237     V239    9.515   .     S
Er237     V240    9.515   .     S
Er237     Ti238    9.109   .     S
Ti238     Ti246    9.741   .     S
Ti238     Ti250    9.741   .     S
Ti238     Ti242    9.741   .     S
V239     V240    10.586   .     S
Er241     V243    9.515   .     S
Er241     V244    9.515   .     S
Er241     Ti242    9.109   .     S
Ti242     Ti246    9.741   .     S
Ti242     Ti250    9.741   .     S
V243     Ce262    10.52   .     S
V243     V244    10.586   .     S
Er245     V247    9.515   .     S
Er245     V248    9.515   .     S
Er245     Ti246    9.109   .     S
V247     V248    10.586   .     S
Er249     V251    9.515   .     S
Er249     V252    9.515   .     S
Er249     Ti250    9.109   .     S
V251     Ce259    10.52   .     S
V251     V252    10.586   .     S
Ce253     Ce257    10.32   1_565     S
Ce253     Ce255    10.32   1_565     S
Ce253     Ce254    10.058   .     S
Ce253     Ce258    10.058   .     S
Ce253     V287    10.52   .     S
Ce254     Ce258    10.32   .     S
Ce254     Ce256    10.32   1_565     S
Ce254     Ce255    10.058   1_565     S
Ce255     Ce257    10.32   .     S
Ce255     Ce253    10.32   1_545     S
Ce255     Ce254    10.058   1_545     S
Ce255     Ce256    10.058   .     S
Ce255     V271    10.52   .     S
Ce256     Ce258    10.32   1_545     S
Ce256     Ce254    10.32   1_545     S
Ce256     Ce257    10.058   .     S
Ce257     Ce253    10.32   1_545     S
Ce257     Ce258    10.058   1_545     S
Ce257     V283    10.52   .     S
Ce258     Ce256    10.32   1_565     S
Ce258     Ce257    10.058   1_565     S
Ce259     Ce262    10.32   .     S
Ce259     Ce263    10.32   1_556     S
Ce259     Ce264    10.058   1_556     S
Ce259     Ce260    10.058   .     S
Ce260     Ce261    10.32   1_556     S
Ce260     Ce264    10.32   1_556     S
Ce260     Ce262    10.058   .     S
Ce260     V276    10.52   .     S
Ce261     Ce264    10.32   .     S
Ce261     Ce260    10.32   1_554     S
Ce261     Ce263    10.058   .     S
Ce261     Ce262    10.058   1_554     S
Ce261     V279    10.52   .     S
Ce262     Ce263    10.32   1_556     S
Ce262     Ce261    10.058   1_556     S
Ce263     Ce262    10.32   1_554     S
Ce263     Ce259    10.32   1_554     S
Ce263     Ce264    10.058   .     S
Ce264     Ce260    10.32   1_554     S
Ce264     Ce259    10.058   1_554     S
Ce264     V272    10.52   .     S
Er265     V267    9.515   .     S
Er265     V268    9.515   .     S
Er265     Ti266    9.109   .     S
Ti266     Ti274    9.741   .     S
Ti266     Ti278    9.741   .     S
Ti266     Ti286    9.741   .     S
Ti266     Ti282    9.741   .     S
V267     V268    10.586   .     S
Er269     V271    9.515   .     S
Er269     V272    9.515   .     S
Er269     Ti270    9.109   .     S
Ti270     Ti274    9.741   .     S
Ti270     Ti278    9.741   .     S
Ti270     Ti286    9.741   .     S
Ti270     Ti282    9.741   .     S
V271     V272    10.586   .     S
Er273     V275    9.515   .     S
Er273     V276    9.515   .     S
Er273     Ti274    9.109   1_556     S
Ti274     Er273    9.109   1_554     S
Ti274     Ti286    9.741   .     S
Ti274     Ti278    9.741   .     S
V275     V276    10.586   .     S
Er277     V280    9.515   .     S
Er277     V279    9.515   .     S
Er277     Ti278    9.109   .     S
Ti278     Ti282    9.741   .     S
V279     V280    10.586   .     S
Er281     V284    9.515   .     S
Er281     V283    9.515   .     S
Er281     Ti282    9.109   .     S
Ti282     Ti286    9.741   .     S
V283     V284    10.586   .     S
Er285     V288    9.515   .     S
Er285     V287    9.515   .     S
Er285     Ti286    9.109   1_565     S
Ti286     Er285    9.109   1_545     S
V287     V288    10.586   .     S
