data_mgda
_audit_creation_date              2020-02-04
_audit_creation_method            'Pymatgen'
_symmetry_space_group_name_H-M    'P1'
_symmetry_Int_Tables_number       1
loop_
_symmetry_equiv_pos_as_xyz
  x,y,z
_cell_length_a                    106.5808
_cell_length_b                    106.5808
_cell_length_c                    106.5808
_cell_angle_alpha                 90.0
_cell_angle_beta                 90.0
_cell_angle_gamma                 90.0
loop_
_atom_site_label
_atom_site_type_symbol
_atom_site_fract_x
_atom_site_fract_y
_atom_site_fract_z
V1     V     0.375   0.375   0.8087
V2     V     0.375   0.375   0.9413
V3     V     0.3087   0.375   0.875
V4     V     0.375   0.3087   0.875
V5     V     0.375   0.4413   0.875
V6     V     0.4413   0.375   0.875
V7     V     0.625   0.5587   0.125
V8     V     0.625   0.625   0.0587
V9     V     0.5587   0.625   0.125
V10     V     0.625   0.625   0.1913
V11     V     0.6913   0.625   0.125
V12     V     0.625   0.6913   0.125
V13     V     0.8087   0.875   0.875
V14     V     0.9413   0.875   0.875
V15     V     0.875   0.9413   0.875
V16     V     0.875   0.875   0.9413
V17     V     0.875   0.8087   0.875
V18     V     0.875   0.875   0.8087
V19     V     0.8087   0.375   0.375
V20     V     0.9413   0.375   0.375
V21     V     0.875   0.375   0.3087
V22     V     0.875   0.375   0.4413
V23     V     0.875   0.3087   0.375
V24     V     0.875   0.4413   0.375
V25     V     0.375   0.8087   0.375
V26     V     0.375   0.9413   0.375
V27     V     0.3087   0.875   0.375
V28     V     0.375   0.875   0.3087
V29     V     0.4413   0.875   0.375
V30     V     0.375   0.875   0.4413
V31     V     0.625   0.1913   0.625
V32     V     0.5587   0.125   0.625
V33     V     0.6913   0.125   0.625
V34     V     0.625   0.0587   0.625
V35     V     0.625   0.125   0.5587
V36     V     0.625   0.125   0.6913
V37     V     0.1913   0.625   0.625
V38     V     0.125   0.5587   0.625
V39     V     0.0587   0.625   0.625
V40     V     0.125   0.625   0.6913
V41     V     0.125   0.625   0.5587
V42     V     0.125   0.6913   0.625
V43     V     0.125   0.1913   0.125
V44     V     0.125   0.0587   0.125
V45     V     0.1913   0.125   0.125
V46     V     0.0587   0.125   0.125
V47     V     0.125   0.125   0.0587
V48     V     0.125   0.125   0.1913
Er49     Er     0.0352   0.875   0.875
Er50     Er     0.0352   0.375   0.375
Er51     Er     0.375   0.5352   0.875
Er52     Er     0.875   0.875   0.0352
Er53     Er     0.4648   0.625   0.125
Er54     Er     0.375   0.875   0.5352
Er55     Er     0.375   0.7148   0.375
Er56     Er     0.625   0.625   0.2852
Er57     Er     0.875   0.0352   0.875
Er58     Er     0.625   0.7852   0.125
Er59     Er     0.7852   0.125   0.625
Er60     Er     0.375   0.0352   0.375
Er61     Er     0.375   0.375   0.0352
Er62     Er     0.7852   0.625   0.125
Er63     Er     0.125   0.625   0.7852
Er64     Er     0.125   0.7852   0.625
Er65     Er     0.625   0.4648   0.125
Er66     Er     0.4648   0.125   0.625
Er67     Er     0.625   0.125   0.4648
Er68     Er     0.625   0.125   0.7852
Er69     Er     0.375   0.375   0.7148
Er70     Er     0.7148   0.875   0.875
Er71     Er     0.7148   0.375   0.375
Er72     Er     0.875   0.7148   0.875
Er73     Er     0.875   0.875   0.7148
Er74     Er     0.2148   0.875   0.375
Er75     Er     0.5352   0.375   0.875
Er76     Er     0.2148   0.375   0.875
Er77     Er     0.125   0.2852   0.125
Er78     Er     0.2852   0.125   0.125
Er79     Er     0.875   0.375   0.2148
Er80     Er     0.125   0.125   0.2852
Er81     Er     0.625   0.2852   0.625
Er82     Er     0.2852   0.625   0.625
Er83     Er     0.375   0.2148   0.875
Er84     Er     0.875   0.2148   0.375
Er85     Er     0.125   0.4648   0.625
Er86     Er     0.375   0.875   0.2148
Er87     Er     0.125   0.625   0.4648
Er88     Er     0.9648   0.125   0.125
Er89     Er     0.5352   0.875   0.375
Er90     Er     0.875   0.5352   0.375
Er91     Er     0.875   0.375   0.5352
Er92     Er     0.125   0.9648   0.125
Er93     Er     0.125   0.125   0.9648
Er94     Er     0.9648   0.625   0.625
Er95     Er     0.625   0.9648   0.625
Er96     Er     0.625   0.625   0.9648
Ce97     Ce     0.8226   0.0414   0.2086
Ti98     Ti     0.8836   0.0918   0.1582
Ti99     Ti     0.8836   0.1582   0.0918
Ce100     Ce     0.8226   0.2086   0.0414
Ce101     Ce     0.7086   0.9274   0.2086
Ti102     Ti     0.6582   0.8664   0.1582
Ti103     Ti     0.5918   0.8664   0.0918
Ce104     Ce     0.5414   0.9274   0.0414
Ti105     Ti     0.9082   0.8418   0.1164
Ti106     Ti     0.8418   0.9082   0.1164
Ce107     Ce     0.9586   0.7914   0.1774
Ce108     Ce     0.7914   0.9586   0.1774
Ce109     Ce     0.9274   0.5414   0.0414
Ti110     Ti     0.8664   0.6582   0.1582
Ti111     Ti     0.8664   0.5918   0.0918
Ce112     Ce     0.9274   0.7086   0.2086
Ti113     Ti     0.0918   0.1582   0.8836
Ti114     Ti     0.1582   0.0918   0.8836
Ce115     Ce     0.0414   0.2086   0.8226
Ce116     Ce     0.2086   0.0414   0.8226
Ti117     Ti     0.8664   0.1582   0.6582
Ti118     Ti     0.8664   0.0918   0.5918
Ce119     Ce     0.9274   0.0414   0.5414
Ce120     Ce     0.9274   0.2086   0.7086
Ce121     Ce     0.7086   0.2086   0.9274
Ti122     Ti     0.6582   0.1582   0.8664
Ti123     Ti     0.5918   0.0918   0.8664
Ce124     Ce     0.5414   0.0414   0.9274
Ti125     Ti     0.9082   0.1164   0.8418
Ti126     Ti     0.8418   0.1164   0.9082
Ce127     Ce     0.7914   0.1774   0.9586
Ce128     Ce     0.9586   0.1774   0.7914
Ce129     Ce     0.8226   0.7086   0.5414
Ti130     Ti     0.8836   0.5918   0.6582
Ti131     Ti     0.8836   0.6582   0.5918
Ce132     Ce     0.8226   0.5414   0.7086
Ce133     Ce     0.6774   0.2914   0.9586
Ti134     Ti     0.6164   0.3418   0.9082
Ti135     Ti     0.6164   0.4082   0.8418
Ce136     Ce     0.6774   0.4586   0.7914
Ti137     Ti     0.9082   0.9082   0.6336
Ti138     Ti     0.8418   0.8418   0.6336
Ce139     Ce     0.9586   0.9586   0.5726
Ce140     Ce     0.7914   0.7914   0.5726
Ce141     Ce     0.0414   0.3226   0.7086
Ti142     Ti     0.0918   0.3836   0.6582
Ti143     Ti     0.1582   0.3836   0.5918
Ce144     Ce     0.2086   0.3226   0.5414
Ti145     Ti     0.1336   0.4082   0.9082
Ti146     Ti     0.1336   0.3418   0.8418
Ce147     Ce     0.0726   0.4586   0.9586
Ce148     Ce     0.0726   0.2914   0.7914
Ce149     Ce     0.6774   0.9586   0.2914
Ti150     Ti     0.6164   0.9082   0.3418
Ti151     Ti     0.6164   0.8418   0.4082
Ce152     Ce     0.6774   0.7914   0.4586
Ce153     Ce     0.9586   0.6774   0.2914
Ti154     Ti     0.9082   0.6164   0.3418
Ti155     Ti     0.8418   0.6164   0.4082
Ce156     Ce     0.7914   0.6774   0.4586
Ti157     Ti     0.6582   0.6582   0.3664
Ti158     Ti     0.5918   0.5918   0.3664
Ce159     Ce     0.5414   0.5414   0.4274
Ce160     Ce     0.7086   0.7086   0.4274
Ti161     Ti     0.6336   0.4082   0.4082
Ti162     Ti     0.6336   0.3418   0.3418
Ce163     Ce     0.5726   0.2914   0.2914
Ce164     Ce     0.5726   0.4586   0.4586
Ti165     Ti     0.4082   0.4082   0.6336
Ti166     Ti     0.3418   0.3418   0.6336
Ce167     Ce     0.4586   0.4586   0.5726
Ce168     Ce     0.2914   0.2914   0.5726
Ce169     Ce     0.7086   0.4274   0.7086
Ti170     Ti     0.6582   0.3664   0.6582
Ti171     Ti     0.5918   0.3664   0.5918
Ce172     Ce     0.5414   0.4274   0.5414
Ti173     Ti     0.9082   0.3418   0.6164
Ti174     Ti     0.8418   0.4082   0.6164
Ce175     Ce     0.9586   0.2914   0.6774
Ce176     Ce     0.7914   0.4586   0.6774
Ti177     Ti     0.3836   0.0918   0.6582
Ti178     Ti     0.3836   0.1582   0.5918
Ce179     Ce     0.3226   0.0414   0.7086
Ce180     Ce     0.3226   0.2086   0.5414
Ti181     Ti     0.4082   0.1336   0.9082
Ti182     Ti     0.3418   0.1336   0.8418
Ce183     Ce     0.2914   0.0726   0.7914
Ce184     Ce     0.4586   0.0726   0.9586
Ti185     Ti     0.9082   0.1336   0.4082
Ti186     Ti     0.8418   0.1336   0.3418
Ce187     Ce     0.9586   0.0726   0.4586
Ce188     Ce     0.7914   0.0726   0.2914
Ti189     Ti     0.6582   0.0918   0.3836
Ti190     Ti     0.5918   0.1582   0.3836
Ce191     Ce     0.7086   0.0414   0.3226
Ce192     Ce     0.5414   0.2086   0.3226
Ti193     Ti     0.3418   0.1164   0.4082
Ti194     Ti     0.4082   0.1164   0.3418
Ce195     Ce     0.2914   0.1774   0.4586
Ce196     Ce     0.4586   0.1774   0.2914
Ti197     Ti     0.1164   0.3418   0.4082
Ti198     Ti     0.1164   0.4082   0.3418
Ce199     Ce     0.1774   0.4586   0.2914
Ce200     Ce     0.1774   0.2914   0.4586
Ti201     Ti     0.9082   0.4082   0.1336
Ti202     Ti     0.8418   0.3418   0.1336
Ce203     Ce     0.9586   0.4586   0.0726
Ce204     Ce     0.7914   0.2914   0.0726
Ti205     Ti     0.6582   0.3836   0.0918
Ti206     Ti     0.5918   0.3836   0.1582
Ce207     Ce     0.7086   0.3226   0.0414
Ce208     Ce     0.5414   0.3226   0.2086
Ti209     Ti     0.0918   0.3664   0.0918
Ti210     Ti     0.1582   0.3664   0.1582
Ce211     Ce     0.0414   0.4274   0.0414
Ce212     Ce     0.2086   0.4274   0.2086
Ti213     Ti     0.3418   0.4082   0.1164
Ti214     Ti     0.4082   0.3418   0.1164
Ce215     Ce     0.2914   0.4586   0.1774
Ce216     Ce     0.4586   0.2914   0.1774
Ti217     Ti     0.3664   0.0918   0.0918
Ti218     Ti     0.3664   0.1582   0.1582
Ce219     Ce     0.4274   0.0414   0.0414
Ce220     Ce     0.4274   0.2086   0.2086
Ti221     Ti     0.0918   0.0918   0.3664
Ti222     Ti     0.1582   0.1582   0.3664
Ce223     Ce     0.0414   0.0414   0.4274
Ce224     Ce     0.2086   0.2086   0.4274
Ce225     Ce     0.0414   0.5414   0.9274
Ti226     Ti     0.1582   0.6582   0.8664
Ti227     Ti     0.0918   0.5918   0.8664
Ce228     Ce     0.2086   0.7086   0.9274
Ti229     Ti     0.1164   0.8418   0.9082
Ti230     Ti     0.1164   0.9082   0.8418
Ce231     Ce     0.1774   0.9586   0.7914
Ce232     Ce     0.1774   0.7914   0.9586
Ce233     Ce     0.2086   0.9274   0.7086
Ti234     Ti     0.1582   0.8664   0.6582
Ti235     Ti     0.0918   0.8664   0.5918
Ce236     Ce     0.0414   0.9274   0.5414
Ce237     Ce     0.2914   0.5726   0.2914
Ti238     Ti     0.3418   0.6336   0.3418
Ti239     Ti     0.4082   0.6336   0.4082
Ce240     Ce     0.4586   0.5726   0.4586
Ti241     Ti     0.5918   0.8836   0.6582
Ti242     Ti     0.6582   0.8836   0.5918
Ce243     Ce     0.5414   0.8226   0.7086
Ce244     Ce     0.7086   0.8226   0.5414
Ti245     Ti     0.6336   0.9082   0.9082
Ti246     Ti     0.6336   0.8418   0.8418
Ce247     Ce     0.5726   0.9586   0.9586
Ce248     Ce     0.5726   0.7914   0.7914
Ti249     Ti     0.9082   0.6336   0.9082
Ti250     Ti     0.8418   0.6336   0.8418
Ce251     Ce     0.9586   0.5726   0.9586
Ce252     Ce     0.7914   0.5726   0.7914
Ti253     Ti     0.5918   0.6582   0.8836
Ti254     Ti     0.6582   0.5918   0.8836
Ce255     Ce     0.7086   0.5414   0.8226
Ce256     Ce     0.5414   0.7086   0.8226
Ti257     Ti     0.3418   0.9082   0.6164
Ti258     Ti     0.4082   0.8418   0.6164
Ce259     Ce     0.4586   0.7914   0.6774
Ce260     Ce     0.2914   0.9586   0.6774
Ti261     Ti     0.3418   0.6164   0.9082
Ti262     Ti     0.4082   0.6164   0.8418
Ce263     Ce     0.2914   0.6774   0.9586
Ce264     Ce     0.4586   0.6774   0.7914
Ti265     Ti     0.3664   0.5918   0.5918
Ti266     Ti     0.3664   0.6582   0.6582
Ce267     Ce     0.4274   0.7086   0.7086
Ce268     Ce     0.4274   0.5414   0.5414
Ti269     Ti     0.4082   0.9082   0.1336
Ti270     Ti     0.3418   0.8418   0.1336
Ce271     Ce     0.4586   0.9586   0.0726
Ce272     Ce     0.2914   0.7914   0.0726
Ce273     Ce     0.3226   0.7086   0.0414
Ti274     Ti     0.3836   0.6582   0.0918
Ti275     Ti     0.3836   0.5918   0.1582
Ce276     Ce     0.3226   0.5414   0.2086
Ti277     Ti     0.0918   0.8836   0.1582
Ti278     Ti     0.1582   0.8836   0.0918
Ce279     Ce     0.0414   0.8226   0.2086
Ce280     Ce     0.2086   0.8226   0.0414
Ce281     Ce     0.0414   0.7086   0.3226
Ti282     Ti     0.0918   0.6582   0.3836
Ti283     Ti     0.1582   0.5918   0.3836
Ce284     Ce     0.2086   0.5414   0.3226
Ti285     Ti     0.1336   0.9082   0.4082
Ti286     Ti     0.1336   0.8418   0.3418
Ce287     Ce     0.0726   0.9586   0.4586
Ce288     Ce     0.0726   0.7914   0.2914
loop_
_geom_bond_atom_site_label_1
_geom_bond_atom_site_label_2
_geom_bond_distance
_geom_bond_site_symmetry_2
_ccdc_geom_bond_type
V1     V3    9.999   .     S
V1     V4    9.999   .     S
V1     V5    9.999   .     S
V1     V6    9.999   .     S
V1     Er69    10.0   .     S
V2     V4    9.999   .     S
V2     V3    9.999   .     S
V2     V5    9.999   .     S
V2     V6    9.999   .     S
V2     Er61    10.0   1_556     S
V3     V5    9.999   .     S
V3     V4    9.999   .     S
V3     Er76    10.0   .     S
V4     V6    9.999   .     S
V4     Er83    10.0   .     S
V5     V6    9.999   .     S
V5     Er51    10.0   .     S
V6     Er75    10.0   .     S
V7     V10    9.999   .     S
V7     V11    9.999   .     S
V7     V8    9.999   .     S
V7     V9    9.999   .     S
V7     Er65    10.0   .     S
V8     V11    9.999   .     S
V8     V12    9.999   .     S
V8     V9    9.999   .     S
V8     Er96    10.0   1_554     S
V9     V12    9.999   .     S
V9     V10    9.999   .     S
V9     Er53    10.0   .     S
V10     V12    9.999   .     S
V10     V11    9.999   .     S
V10     Er56    10.0   .     S
V11     V12    9.999   .     S
V11     Er62    10.0   .     S
V12     Er58    10.0   .     S
V13     V15    9.999   .     S
V13     V16    9.999   .     S
V13     V18    9.999   .     S
V13     V17    9.999   .     S
V13     Er70    10.0   .     S
V14     V15    9.999   .     S
V14     V16    9.999   .     S
V14     V17    9.999   .     S
V14     V18    9.999   .     S
V14     Er49    10.0   1_655     S
V15     V16    9.999   .     S
V15     V18    9.999   .     S
V15     Er57    10.0   1_565     S
V16     V17    9.999   .     S
V16     Er52    10.0   1_556     S
V17     V18    9.999   .     S
V17     Er72    10.0   .     S
V18     Er73    10.0   .     S
V19     V22    9.999   .     S
V19     V23    9.999   .     S
V19     V21    9.999   .     S
V19     V24    9.999   .     S
V19     Er71    10.0   .     S
V20     V22    9.999   .     S
V20     V23    9.999   .     S
V20     V21    9.999   .     S
V20     V24    9.999   .     S
V20     Er50    10.0   1_655     S
V21     V23    9.999   .     S
V21     V24    9.999   .     S
V21     Er79    10.0   .     S
V22     V23    9.999   .     S
V22     V24    9.999   .     S
V22     Er91    10.0   .     S
V23     Er84    10.0   .     S
V24     Er90    10.0   .     S
V25     V27    9.999   .     S
V25     V28    9.999   .     S
V25     V29    9.999   .     S
V25     V30    9.999   .     S
V25     Er55    10.0   .     S
V26     V29    9.999   .     S
V26     V28    9.999   .     S
V26     V27    9.999   .     S
V26     V30    9.999   .     S
V26     Er60    10.0   1_565     S
V27     V28    9.999   .     S
V27     V30    9.999   .     S
V27     Er74    10.0   .     S
V28     V29    9.999   .     S
V28     Er86    10.0   .     S
V29     V30    9.999   .     S
V29     Er89    10.0   .     S
V30     Er54    10.0   .     S
V31     V33    9.999   .     S
V31     V36    9.999   .     S
V31     V32    9.999   .     S
V31     V35    9.999   .     S
V31     Er81    10.0   .     S
V32     V36    9.999   .     S
V32     V34    9.999   .     S
V32     V35    9.999   .     S
V32     Er66    10.0   .     S
V33     V36    9.999   .     S
V33     V34    9.999   .     S
V33     V35    9.999   .     S
V33     Er59    10.0   .     S
V34     V36    9.999   .     S
V34     V35    9.999   .     S
V34     Er95    10.0   1_545     S
V35     Er67    10.0   .     S
V36     Er68    10.0   .     S
V37     V42    9.999   .     S
V37     V41    9.999   .     S
V37     V40    9.999   .     S
V37     V38    9.999   .     S
V37     Er82    10.0   .     S
V38     V40    9.999   .     S
V38     V39    9.999   .     S
V38     V41    9.999   .     S
V38     Er85    10.0   .     S
V39     V42    9.999   .     S
V39     V40    9.999   .     S
V39     V41    9.999   .     S
V39     Er94    10.0   1_455     S
V40     V42    9.999   .     S
V40     Er63    10.0   .     S
V41     V42    9.999   .     S
V41     Er87    10.0   .     S
V42     Er64    10.0   .     S
V43     V47    9.999   .     S
V43     V46    9.999   .     S
V43     V45    9.999   .     S
V43     V48    9.999   .     S
V43     Er77    10.0   .     S
V44     V48    9.999   .     S
V44     V46    9.999   .     S
V44     V45    9.999   .     S
V44     V47    9.999   .     S
V44     Er92    10.0   1_545     S
V45     V47    9.999   .     S
V45     V48    9.999   .     S
V45     Er78    10.0   .     S
V46     V47    9.999   .     S
V46     V48    9.999   .     S
V46     Er88    10.0   1_455     S
V47     Er93    10.0   1_554     S
V48     Er80    10.0   .     S
Er49     V14    10.0   1_455     S
Er49     Ti229    10.0   .     S
Er49     Ti230    10.0   .     S
Er50     V20    10.0   1_455     S
Er50     Ti197    10.0   .     S
Er50     Ti198    10.0   .     S
Er51     Ti261    10.0   .     S
Er51     Ti262    10.0   .     S
Er52     V16    10.0   1_554     S
Er52     Ti106    10.0   .     S
Er52     Ti105    10.0   .     S
Er53     Ti274    10.0   .     S
Er53     Ti275    10.0   .     S
Er54     Ti258    10.0   .     S
Er54     Ti257    10.0   .     S
Er55     Ti238    10.0   .     S
Er55     Ti239    10.0   .     S
Er56     Ti157    10.0   .     S
Er56     Ti158    10.0   .     S
Er57     V15    10.0   1_545     S
Er57     Ti125    10.0   .     S
Er57     Ti126    10.0   .     S
Er58     Ti102    10.0   .     S
Er58     Ti103    10.0   .     S
Er59     Ti117    10.0   .     S
Er59     Ti118    10.0   .     S
Er60     V26    10.0   1_545     S
Er60     Ti193    10.0   .     S
Er60     Ti194    10.0   .     S
Er61     V2    10.0   1_554     S
Er61     Ti214    10.0   .     S
Er61     Ti213    10.0   .     S
Er62     Ti110    10.0   .     S
Er62     Ti111    10.0   .     S
Er63     Ti226    10.0   .     S
Er63     Ti227    10.0   .     S
Er64     Ti234    10.0   .     S
Er64     Ti235    10.0   .     S
Er65     Ti205    10.0   .     S
Er65     Ti206    10.0   .     S
Er66     Ti177    10.0   .     S
Er66     Ti178    10.0   .     S
Er67     Ti189    10.0   .     S
Er67     Ti190    10.0   .     S
Er68     Ti122    10.0   .     S
Er68     Ti123    10.0   .     S
Er69     Ti165    10.0   .     S
Er69     Ti166    10.0   .     S
Er70     Ti245    10.0   .     S
Er70     Ti246    10.0   .     S
Er71     Ti161    10.0   .     S
Er71     Ti162    10.0   .     S
Er72     Ti250    10.0   .     S
Er72     Ti249    10.0   .     S
Er73     Ti137    10.0   .     S
Er73     Ti138    10.0   .     S
Er74     Ti286    10.0   .     S
Er74     Ti285    10.0   .     S
Er75     Ti134    10.0   .     S
Er75     Ti135    10.0   .     S
Er76     Ti145    10.0   .     S
Er76     Ti146    10.0   .     S
Er77     Ti209    10.0   .     S
Er77     Ti210    10.0   .     S
Er78     Ti217    10.0   .     S
Er78     Ti218    10.0   .     S
Er79     Ti201    10.0   .     S
Er79     Ti202    10.0   .     S
Er80     Ti221    10.0   .     S
Er80     Ti222    10.0   .     S
Er81     Ti170    10.0   .     S
Er81     Ti171    10.0   .     S
Er82     Ti265    10.0   .     S
Er82     Ti266    10.0   .     S
Er83     Ti181    10.0   .     S
Er83     Ti182    10.0   .     S
Er84     Ti185    10.0   .     S
Er84     Ti186    10.0   .     S
Er85     Ti142    10.0   .     S
Er85     Ti143    10.0   .     S
Er86     Ti269    10.0   .     S
Er86     Ti270    10.0   .     S
Er87     Ti282    10.0   .     S
Er87     Ti283    10.0   .     S
Er88     V46    10.0   1_655     S
Er88     Ti98    10.0   .     S
Er88     Ti99    10.0   .     S
Er89     Ti151    10.0   .     S
Er89     Ti150    10.0   .     S
Er90     Ti155    10.0   .     S
Er90     Ti154    10.0   .     S
Er91     Ti174    10.0   .     S
Er91     Ti173    10.0   .     S
Er92     V44    10.0   1_565     S
Er92     Ti278    10.0   .     S
Er92     Ti277    10.0   .     S
Er93     V47    10.0   1_556     S
Er93     Ti114    10.0   .     S
Er93     Ti113    10.0   .     S
Er94     V39    10.0   1_655     S
Er94     Ti131    10.0   .     S
Er94     Ti130    10.0   .     S
Er95     V34    10.0   1_565     S
Er95     Ti241    10.0   .     S
Er95     Ti242    10.0   .     S
Er96     V8    10.0   1_556     S
Er96     Ti253    10.0   .     S
Er96     Ti254    10.0   .     S
Ce97     Ti98    10.0   .     S
Ce97     Ce188    10.0   .     S
Ce97     Ce108    10.0   1_545     S
Ti98     Ti99    9.999   .     S
Ti99     Ce100    10.0   .     S
Ce100     Ce127    10.0   1_554     S
Ce100     Ce204    10.0   .     S
Ce101     Ti102    10.0   .     S
Ce101     Ce149    10.0   .     S
Ce101     Ce108    10.0   .     S
Ti102     Ti103    9.999   .     S
Ti103     Ce104    10.0   .     S
Ce104     Ce271    10.0   .     S
Ce104     Ce247    10.0   1_554     S
Ti105     Ti106    9.999   .     S
Ti105     Ce107    10.0   .     S
Ti106     Ce108    10.0   .     S
Ce107     Ce112    10.0   .     S
Ce107     Ce279    10.0   1_655     S
Ce108     Ce97    10.0   1_565     S
Ce109     Ti111    10.0   .     S
Ce109     Ce203    10.0   .     S
Ce109     Ce251    10.0   1_554     S
Ti110     Ti111    9.999   .     S
Ti110     Ce112    10.0   .     S
Ce112     Ce153    10.0   .     S
Ti113     Ti114    9.999   .     S
Ti113     Ce115    10.0   .     S
Ti114     Ce116    10.0   .     S
Ce115     Ce128    10.0   1_455     S
Ce115     Ce148    10.0   .     S
Ce116     Ce183    10.0   .     S
Ce116     Ce231    10.0   1_545     S
Ti117     Ti118    9.999   .     S
Ti117     Ce120    10.0   .     S
Ti118     Ce119    10.0   .     S
Ce119     Ce187    10.0   .     S
Ce119     Ce139    10.0   1_545     S
Ce120     Ce128    10.0   .     S
Ce120     Ce175    10.0   .     S
Ce121     Ti122    10.0   .     S
Ce121     Ce127    10.0   .     S
Ce121     Ce133    10.0   .     S
Ti122     Ti123    9.999   .     S
Ti123     Ce124    10.0   .     S
Ce124     Ce184    10.0   .     S
Ce124     Ce247    10.0   1_545     S
Ti125     Ti126    9.999   .     S
Ti125     Ce128    10.0   .     S
Ti126     Ce127    10.0   .     S
Ce127     Ce100    10.0   1_556     S
Ce128     Ce115    10.0   1_655     S
Ce129     Ti131    10.0   .     S
Ce129     Ce156    10.0   .     S
Ce129     Ce140    10.0   .     S
Ti130     Ti131    9.999   .     S
Ti130     Ce132    10.0   .     S
Ce132     Ce252    10.0   .     S
Ce132     Ce176    10.0   .     S
Ce133     Ti134    10.0   .     S
Ce133     Ce207    10.0   1_556     S
Ti134     Ti135    9.999   .     S
Ti135     Ce136    10.0   .     S
Ce136     Ce169    10.0   .     S
Ce136     Ce255    10.0   .     S
Ti137     Ti138    9.999   .     S
Ti137     Ce139    10.0   .     S
Ti138     Ce140    10.0   .     S
Ce139     Ce236    10.0   1_655     S
Ce139     Ce119    10.0   1_565     S
Ce140     Ce244    10.0   .     S
Ce141     Ti142    10.0   .     S
Ce141     Ce148    10.0   .     S
Ce141     Ce175    10.0   1_455     S
Ti142     Ti143    9.999   .     S
Ti143     Ce144    10.0   .     S
Ce144     Ce200    10.0   .     S
Ce144     Ce168    10.0   .     S
Ti145     Ti146    9.999   .     S
Ti145     Ce147    10.0   .     S
Ti146     Ce148    10.0   .     S
Ce147     Ce211    10.0   1_556     S
Ce147     Ce225    10.0   .     S
Ce149     Ti150    10.0   .     S
Ce149     Ce191    10.0   1_565     S
Ti150     Ti151    9.999   .     S
Ti151     Ce152    10.0   .     S
Ce152     Ce160    10.0   .     S
Ce152     Ce244    10.0   .     S
Ce153     Ti154    10.0   .     S
Ce153     Ce281    10.0   1_655     S
Ti154     Ti155    9.999   .     S
Ti155     Ce156    10.0   .     S
Ce156     Ce160    10.0   .     S
Ti157     Ti158    9.999   .     S
Ti157     Ce160    10.0   .     S
Ti158     Ce159    10.0   .     S
Ce159     Ce164    10.0   .     S
Ce159     Ce240    10.0   .     S
Ti161     Ti162    9.999   .     S
Ti161     Ce164    10.0   .     S
Ti162     Ce163    10.0   .     S
Ce163     Ce192    10.0   .     S
Ce163     Ce208    10.0   .     S
Ce164     Ce172    10.0   .     S
Ti165     Ti166    9.999   .     S
Ti165     Ce167    10.0   .     S
Ti166     Ce168    10.0   .     S
Ce167     Ce172    10.0   .     S
Ce167     Ce268    10.0   .     S
Ce168     Ce180    10.0   .     S
Ce169     Ti170    10.0   .     S
Ce169     Ce176    10.0   .     S
Ti170     Ti171    9.999   .     S
Ti171     Ce172    10.0   .     S
Ti173     Ti174    9.999   .     S
Ti173     Ce175    10.0   .     S
Ti174     Ce176    10.0   .     S
Ce175     Ce141    10.0   1_655     S
Ti177     Ti178    9.999   .     S
Ti177     Ce179    10.0   .     S
Ti178     Ce180    10.0   .     S
Ce179     Ce183    10.0   .     S
Ce179     Ce260    10.0   1_545     S
Ce180     Ce195    10.0   .     S
Ti181     Ti182    9.999   .     S
Ti181     Ce184    10.0   .     S
Ti182     Ce183    10.0   .     S
Ce184     Ce219    10.0   1_556     S
Ti185     Ti186    9.999   .     S
Ti185     Ce187    10.0   .     S
Ti186     Ce188    10.0   .     S
Ce187     Ce223    10.0   1_655     S
Ce188     Ce191    10.0   .     S
Ti189     Ti190    9.999   .     S
Ti189     Ce191    10.0   .     S
Ti190     Ce192    10.0   .     S
Ce191     Ce149    10.0   1_545     S
Ce192     Ce196    10.0   .     S
Ti193     Ti194    9.999   .     S
Ti193     Ce195    10.0   .     S
Ti194     Ce196    10.0   .     S
Ce195     Ce224    10.0   .     S
Ce196     Ce220    10.0   .     S
Ti197     Ti198    9.999   .     S
Ti197     Ce200    10.0   .     S
Ti198     Ce199    10.0   .     S
Ce199     Ce212    10.0   .     S
Ce199     Ce284    10.0   .     S
Ce200     Ce224    10.0   .     S
Ti201     Ti202    9.999   .     S
Ti201     Ce203    10.0   .     S
Ti202     Ce204    10.0   .     S
Ce203     Ce211    10.0   1_655     S
Ce204     Ce207    10.0   .     S
Ti205     Ti206    9.999   .     S
Ti205     Ce207    10.0   .     S
Ti206     Ce208    10.0   .     S
Ce207     Ce133    10.0   1_554     S
Ce208     Ce216    10.0   .     S
Ti209     Ti210    9.999   .     S
Ti209     Ce211    10.0   .     S
Ti210     Ce212    10.0   .     S
Ce211     Ce147    10.0   1_554     S
Ce211     Ce203    10.0   1_455     S
Ce212     Ce215    10.0   .     S
Ti213     Ti214    9.999   .     S
Ti213     Ce215    10.0   .     S
Ti214     Ce216    10.0   .     S
Ce215     Ce276    10.0   .     S
Ce216     Ce220    10.0   .     S
Ti217     Ti218    9.999   .     S
Ti217     Ce219    10.0   .     S
Ti218     Ce220    10.0   .     S
Ce219     Ce184    10.0   1_554     S
Ce219     Ce271    10.0   1_545     S
Ti221     Ti222    9.999   .     S
Ti221     Ce223    10.0   .     S
Ti222     Ce224    10.0   .     S
Ce223     Ce187    10.0   1_455     S
Ce223     Ce287    10.0   1_545     S
Ce225     Ti227    10.0   .     S
Ce225     Ce251    10.0   1_455     S
Ti226     Ti227    9.999   .     S
Ti226     Ce228    10.0   .     S
Ce228     Ce263    10.0   .     S
Ce228     Ce232    10.0   .     S
Ti229     Ti230    9.999   .     S
Ti229     Ce232    10.0   .     S
Ti230     Ce231    10.0   .     S
Ce231     Ce116    10.0   1_565     S
Ce231     Ce233    10.0   .     S
Ce232     Ce280    10.0   1_556     S
Ce233     Ti234    10.0   .     S
Ce233     Ce260    10.0   .     S
Ti234     Ti235    9.999   .     S
Ti235     Ce236    10.0   .     S
Ce236     Ce139    10.0   1_455     S
Ce236     Ce287    10.0   .     S
Ce237     Ti238    10.0   .     S
Ce237     Ce276    10.0   .     S
Ce237     Ce284    10.0   .     S
Ti238     Ti239    9.999   .     S
Ti239     Ce240    10.0   .     S
Ce240     Ce268    10.0   .     S
Ti241     Ti242    9.999   .     S
Ti241     Ce243    10.0   .     S
Ti242     Ce244    10.0   .     S
Ce243     Ce259    10.0   .     S
Ce243     Ce248    10.0   .     S
Ti245     Ti246    9.999   .     S
Ti245     Ce247    10.0   .     S
Ti246     Ce248    10.0   .     S
Ce247     Ce104    10.0   1_556     S
Ce247     Ce124    10.0   1_565     S
Ce248     Ce256    10.0   .     S
Ti249     Ti250    9.999   .     S
Ti249     Ce251    10.0   .     S
Ti250     Ce252    10.0   .     S
Ce251     Ce109    10.0   1_556     S
Ce251     Ce225    10.0   1_655     S
Ce252     Ce255    10.0   .     S
Ti253     Ti254    9.999   .     S
Ti253     Ce256    10.0   .     S
Ti254     Ce255    10.0   .     S
Ce256     Ce264    10.0   .     S
Ti257     Ti258    9.999   .     S
Ti257     Ce260    10.0   .     S
Ti258     Ce259    10.0   .     S
Ce259     Ce267    10.0   .     S
Ce260     Ce179    10.0   1_565     S
Ti261     Ti262    9.999   .     S
Ti261     Ce263    10.0   .     S
Ti262     Ce264    10.0   .     S
Ce263     Ce273    10.0   1_556     S
Ce264     Ce267    10.0   .     S
Ti265     Ti266    9.999   .     S
Ti265     Ce268    10.0   .     S
Ti266     Ce267    10.0   .     S
Ti269     Ti270    9.999   .     S
Ti269     Ce271    10.0   .     S
Ti270     Ce272    10.0   .     S
Ce271     Ce219    10.0   1_565     S
Ce272     Ce273    10.0   .     S
Ce272     Ce280    10.0   .     S
Ce273     Ti274    10.0   .     S
Ce273     Ce263    10.0   1_554     S
Ti274     Ti275    9.999   .     S
Ti275     Ce276    10.0   .     S
Ti277     Ti278    9.999   .     S
Ti277     Ce279    10.0   .     S
Ti278     Ce280    10.0   .     S
Ce279     Ce107    10.0   1_455     S
Ce279     Ce288    10.0   .     S
Ce280     Ce232    10.0   1_554     S
Ce281     Ti282    10.0   .     S
Ce281     Ce288    10.0   .     S
Ce281     Ce153    10.0   1_455     S
Ti282     Ti283    9.999   .     S
Ti283     Ce284    10.0   .     S
Ti285     Ti286    9.999   .     S
Ti285     Ce287    10.0   .     S
Ti286     Ce288    10.0   .     S
Ce287     Ce223    10.0   1_565     S
