data_moo
_audit_creation_date              2020-02-04
_audit_creation_method            'Pymatgen'
_symmetry_space_group_name_H-M    'P1'
_symmetry_Int_Tables_number       1
loop_
_symmetry_equiv_pos_as_xyz
  x,y,z
_cell_length_a                    128.1687
_cell_length_b                    128.1687
_cell_length_c                    128.1687
_cell_angle_alpha                 90.0
_cell_angle_beta                 90.0
_cell_angle_gamma                 90.0
loop_
_atom_site_label
_atom_site_type_symbol
_atom_site_fract_x
_atom_site_fract_y
_atom_site_fract_z
Ti1     Ti     0.5914   0.5231   0.2269
Ti2     Ti     0.5231   0.5914   0.2269
Ti3     Ti     0.5231   0.5231   0.1586
Er4     Er     0.5197   0.5197   0.2303
He5     He     0.5774   0.5774   0.1726
S6     S     0.6056   0.6056   0.1056
Ti7     Ti     0.5914   0.7269   0.0231
Ti8     Ti     0.5231   0.6586   0.0231
Ti9     Ti     0.5231   0.7269   0.0914
Er10     Er     0.5197   0.7303   0.0197
He11     He     0.5774   0.6726   0.0774
S12     S     0.6056   0.6444   0.1444
Ti13     Ti     0.6586   0.5231   0.0231
Ti14     Ti     0.7269   0.5914   0.0231
Ti15     Ti     0.7269   0.5231   0.0915
Er16     Er     0.7303   0.5197   0.0197
He17     He     0.6726   0.5774   0.0774
S18     S     0.6444   0.6056   0.1444
Ti19     Ti     0.7269   0.6586   0.2269
Ti20     Ti     0.6586   0.7269   0.2269
Ti21     Ti     0.7269   0.7269   0.1585
Er22     Er     0.7303   0.7303   0.2303
He23     He     0.6726   0.6726   0.1726
S24     S     0.6444   0.6444   0.1056
Ti25     Ti     0.2269   0.5914   0.5231
Ti26     Ti     0.2269   0.5231   0.5914
Ti27     Ti     0.1586   0.5231   0.5231
Er28     Er     0.2303   0.5197   0.5197
He29     He     0.1726   0.5774   0.5774
Ti30     Ti     0.0231   0.5914   0.7269
Ti31     Ti     0.0231   0.5231   0.6586
Ti32     Ti     0.0915   0.5231   0.7269
Er33     Er     0.0197   0.5197   0.7303
He34     He     0.0774   0.5774   0.6726
S35     S     0.1444   0.6056   0.6444
Ti36     Ti     0.2269   0.7269   0.6586
Ti37     Ti     0.2269   0.6586   0.7269
Ti38     Ti     0.1586   0.7269   0.7269
Er39     Er     0.2303   0.7303   0.7303
He40     He     0.1726   0.6726   0.6726
Ti41     Ti     0.0231   0.7269   0.5914
Ti42     Ti     0.0231   0.6586   0.5231
Ti43     Ti     0.0915   0.7269   0.5231
Er44     Er     0.0197   0.7303   0.5197
He45     He     0.0774   0.6726   0.5774
S46     S     0.1056   0.6444   0.6444
S47     S     0.1056   0.6056   0.6056
S48     S     0.1444   0.6444   0.6056
Ti49     Ti     0.9769   0.8414   0.9769
Ti50     Ti     0.9086   0.7731   0.9769
Ti51     Ti     0.9769   0.7731   0.9086
Er52     Er     0.9803   0.7697   0.9803
He53     He     0.9226   0.8274   0.9226
Ti54     Ti     0.7731   0.8414   0.7731
Ti55     Ti     0.8414   0.7731   0.7731
Ti56     Ti     0.7731   0.7731   0.8414
Er57     Er     0.7697   0.7697   0.7697
He58     He     0.8274   0.8274   0.8274
Ti59     Ti     0.7731   0.9769   0.9086
Ti60     Ti     0.7731   0.9086   0.9769
Ti61     Ti     0.8414   0.9769   0.9769
Er62     Er     0.7697   0.9803   0.9803
He63     He     0.8274   0.9226   0.9226
Ti64     Ti     0.9769   0.9769   0.8414
Ti65     Ti     0.9769   0.9086   0.7731
Ti66     Ti     0.9086   0.9769   0.7731
Er67     Er     0.9803   0.9803   0.7697
He68     He     0.9226   0.9226   0.8274
S69     S     0.8556   0.8556   0.8944
S70     S     0.8944   0.8556   0.8556
S71     S     0.8944   0.8944   0.8944
S72     S     0.8556   0.8944   0.8556
Ti73     Ti     0.7269   0.0914   0.5231
Ti74     Ti     0.7269   0.0231   0.5914
Ti75     Ti     0.6586   0.0231   0.5231
Er76     Er     0.7303   0.0197   0.5197
He77     He     0.6726   0.0774   0.5774
S78     S     0.6444   0.1444   0.6056
Ti79     Ti     0.7269   0.2269   0.6586
Ti80     Ti     0.6586   0.2269   0.7269
Ti81     Ti     0.7269   0.1586   0.7269
Er82     Er     0.7303   0.2303   0.7303
He83     He     0.6726   0.1726   0.6726
Ti84     Ti     0.5914   0.2269   0.5231
Ti85     Ti     0.5231   0.2269   0.5914
Ti86     Ti     0.5231   0.1586   0.5231
Er87     Er     0.5197   0.2303   0.5197
He88     He     0.5774   0.1726   0.5774
S89     S     0.6444   0.1056   0.6444
Ti90     Ti     0.5914   0.0231   0.7269
Ti91     Ti     0.5231   0.0231   0.6586
Ti92     Ti     0.5231   0.0915   0.7269
Er93     Er     0.5197   0.0197   0.7303
He94     He     0.5774   0.0774   0.6726
S95     S     0.6056   0.1056   0.6056
S96     S     0.6056   0.1444   0.6444
Ti97     Ti     0.4086   0.9769   0.2731
Ti98     Ti     0.4769   0.9086   0.2731
Ti99     Ti     0.4769   0.9769   0.3414
Er100     Er     0.4803   0.9803   0.2697
He101     He     0.4226   0.9226   0.3274
Ti102     Ti     0.2731   0.9086   0.4769
Ti103     Ti     0.3414   0.9769   0.4769
Ti104     Ti     0.2731   0.9769   0.4085
Er105     Er     0.2697   0.9803   0.4803
He106     He     0.3274   0.9226   0.4226
S107     S     0.3556   0.8944   0.3556
S108     S     0.3944   0.8944   0.3944
Ti109     Ti     0.4769   0.8414   0.4769
Ti110     Ti     0.4086   0.7731   0.4769
Ti111     Ti     0.4769   0.7731   0.4086
Er112     Er     0.4803   0.7697   0.4803
He113     He     0.4226   0.8274   0.4226
S114     S     0.3556   0.8556   0.3944
Ti115     Ti     0.2731   0.8414   0.2731
Ti116     Ti     0.3414   0.7731   0.2731
Ti117     Ti     0.2731   0.7731   0.3415
Er118     Er     0.2697   0.7697   0.2697
He119     He     0.3274   0.8274   0.3274
S120     S     0.3944   0.8556   0.3556
Ti121     Ti     0.2269   0.1586   0.2269
Ti122     Ti     0.2269   0.2269   0.1586
Ti123     Ti     0.1586   0.2269   0.2269
Er124     Er     0.2303   0.2303   0.2303
He125     He     0.1726   0.1726   0.1726
S126     S     0.1444   0.1056   0.1444
Ti127     Ti     0.0915   0.0231   0.2269
Ti128     Ti     0.0231   0.0914   0.2269
Ti129     Ti     0.0231   0.0231   0.1586
Er130     Er     0.0197   0.0197   0.2303
He131     He     0.0774   0.0774   0.1726
Ti132     Ti     0.0915   0.2269   0.0231
Ti133     Ti     0.0231   0.2269   0.0914
Ti134     Ti     0.0231   0.1586   0.0231
Er135     Er     0.0197   0.2303   0.0197
He136     He     0.0774   0.1726   0.0774
S137     S     0.1056   0.1444   0.1444
Ti138     Ti     0.2269   0.0231   0.0915
Ti139     Ti     0.2269   0.0914   0.0231
Ti140     Ti     0.1586   0.0231   0.0231
Er141     Er     0.2303   0.0197   0.0197
He142     He     0.1726   0.0774   0.0774
S143     S     0.1444   0.1444   0.1056
S144     S     0.1056   0.1056   0.1056
Ti145     Ti     0.2731   0.4086   0.9769
Ti146     Ti     0.2731   0.4769   0.9086
Ti147     Ti     0.3414   0.4769   0.9769
Er148     Er     0.2697   0.4803   0.9803
He149     He     0.3274   0.4226   0.9226
Ti150     Ti     0.4086   0.2731   0.9769
Ti151     Ti     0.4769   0.3414   0.9769
Ti152     Ti     0.4769   0.2731   0.9086
Er153     Er     0.4803   0.2697   0.9803
He154     He     0.4226   0.3274   0.9226
S155     S     0.3944   0.3944   0.8944
S156     S     0.3556   0.3556   0.8944
Ti157     Ti     0.2731   0.3415   0.7731
Ti158     Ti     0.2731   0.2731   0.8414
Ti159     Ti     0.3414   0.2731   0.7731
Er160     Er     0.2697   0.2697   0.7697
He161     He     0.3274   0.3274   0.8274
S162     S     0.3944   0.3556   0.8556
Ti163     Ti     0.4769   0.4769   0.8414
Ti164     Ti     0.4086   0.4769   0.7731
Ti165     Ti     0.4769   0.4085   0.7731
Er166     Er     0.4803   0.4803   0.7697
He167     He     0.4226   0.4226   0.8274
S168     S     0.3556   0.3944   0.8556
Ce169     Ce     0.0526   0.6527   0.3954
Be170     Be     0.0567   0.6933   0.4618
Ce171     Ce     0.0973   0.6974   0.3954
V172     V     0.0487   0.7013   0.3847
Li173     Li     0.125   0.625   0.3864
Ce174     Ce     0.1974   0.5973   0.3954
Be175     Be     0.1933   0.5567   0.4618
Ce176     Ce     0.1527   0.5526   0.3954
V177     V     0.2013   0.5487   0.3847
Be178     Be     0.6933   0.7882   0.1933
Ce179     Ce     0.6527   0.8546   0.1974
Ce180     Ce     0.6974   0.8546   0.1527
V181     V     0.7013   0.8654   0.2013
Li182     Li     0.625   0.8636   0.125
Be183     Be     0.5567   0.7882   0.0567
Ce184     Ce     0.5973   0.8546   0.0526
Ce185     Ce     0.5526   0.8546   0.0973
V186     V     0.5487   0.8654   0.0487
Ce187     Ce     0.1046   0.9027   0.8026
Ce188     Ce     0.1046   0.9474   0.8473
Be189     Be     0.0381   0.9433   0.8067
V190     V     0.1154   0.9513   0.7987
Li191     Li     0.1136   0.875   0.875
Ce192     Ce     0.1046   0.8473   0.9474
Ce193     Ce     0.1046   0.8026   0.9027
Be194     Be     0.0381   0.8067   0.9433
V195     V     0.1154   0.7987   0.9513
Ce196     Ce     0.8026   0.1046   0.9027
Be197     Be     0.8067   0.0382   0.9433
Ce198     Ce     0.8473   0.1046   0.9474
V199     V     0.7987   0.1154   0.9513
Li200     Li     0.875   0.1136   0.875
Ce201     Ce     0.9474   0.1046   0.8473
Ce202     Ce     0.9027   0.1046   0.8026
Be203     Be     0.9433   0.0381   0.8067
V204     V     0.9513   0.1154   0.7987
Ce205     Ce     0.9027   0.8026   0.1046
Be206     Be     0.9433   0.8067   0.0382
Ce207     Ce     0.9474   0.8473   0.1046
V208     V     0.9513   0.7987   0.1154
Li209     Li     0.875   0.875   0.1136
Ce210     Ce     0.8473   0.9474   0.1046
Ce211     Ce     0.8026   0.9027   0.1046
Be212     Be     0.8067   0.9433   0.0381
V213     V     0.7987   0.9513   0.1154
Be214     Be     0.9618   0.5567   0.6933
Ce215     Ce     0.8954   0.5526   0.6527
Ce216     Ce     0.8954   0.5973   0.6974
V217     V     0.8846   0.5487   0.7013
Li218     Li     0.8864   0.625   0.625
Be219     Be     0.9618   0.6933   0.5567
Ce220     Ce     0.8954   0.6974   0.5973
Ce221     Ce     0.8954   0.6527   0.5526
V222     V     0.8846   0.7013   0.5487
Be223     Be     0.6933   0.9618   0.5567
Ce224     Ce     0.6527   0.8954   0.5526
Ce225     Ce     0.6974   0.8954   0.5973
V226     V     0.7013   0.8846   0.5487
Li227     Li     0.625   0.8864   0.625
Be228     Be     0.5567   0.9618   0.6933
Ce229     Ce     0.5973   0.8954   0.6974
Ce230     Ce     0.5526   0.8954   0.6527
V231     V     0.5487   0.8846   0.7013
Be232     Be     0.5567   0.6933   0.9618
Ce233     Ce     0.5973   0.6974   0.8954
Ce234     Ce     0.5526   0.6527   0.8954
V235     V     0.5487   0.7013   0.8846
Li236     Li     0.625   0.625   0.8864
Be237     Be     0.6933   0.5567   0.9618
Ce238     Ce     0.6527   0.5526   0.8954
Ce239     Ce     0.6974   0.5973   0.8954
V240     V     0.7013   0.5487   0.8846
H241     H     0.6738   0.8501   0.5762
H242     H     0.8262   0.8262   0.6001
B243     B     0.75   0.8384   0.5884
H244     H     0.8501   0.6738   0.5762
B245     B     0.8384   0.6616   0.5
H246     H     0.8262   0.6499   0.4238
H247     H     0.6499   0.8262   0.4238
B248     B     0.6616   0.75   0.4116
H249     H     0.6738   0.6738   0.3999
B250     B     0.75   0.6616   0.4116
B251     B     0.6616   0.8384   0.5
B252     B     0.8384   0.75   0.5884
Ce253     Ce     0.5526   0.5973   0.3546
Ce254     Ce     0.5973   0.5526   0.3546
Be255     Be     0.5567   0.5567   0.2882
V256     V     0.5487   0.5487   0.3654
Li257     Li     0.625   0.625   0.3636
Ce258     Ce     0.6974   0.6527   0.3546
Ce259     Ce     0.6527   0.6974   0.3546
Be260     Be     0.6933   0.6933   0.2881
V261     V     0.7013   0.7013   0.3654
Be262     Be     0.5382   0.4433   0.8067
Ce263     Ce     0.6046   0.4474   0.8473
Ce264     Ce     0.6046   0.4027   0.8026
V265     V     0.6153   0.4513   0.7987
Li266     Li     0.6136   0.375   0.875
Be267     Be     0.5382   0.3067   0.9433
Ce268     Ce     0.6046   0.3026   0.9027
Ce269     Ce     0.6046   0.3473   0.9474
V270     V     0.6153   0.2987   0.9513
Be271     Be     0.0567   0.4618   0.6933
Ce272     Ce     0.0973   0.3954   0.6974
Ce273     Ce     0.0526   0.3954   0.6527
V274     V     0.0487   0.3847   0.7013
Li275     Li     0.125   0.3864   0.625
Be276     Be     0.1933   0.4618   0.5567
Ce277     Ce     0.1527   0.3954   0.5526
Ce278     Ce     0.1974   0.3954   0.5973
V279     V     0.2013   0.3847   0.5487
Be280     Be     0.7118   0.8067   0.8067
Ce281     Ce     0.6454   0.8026   0.8473
Ce282     Ce     0.6454   0.8473   0.8026
V283     V     0.6346   0.7987   0.7987
Li284     Li     0.6364   0.875   0.875
Ce285     Ce     0.6454   0.9474   0.9027
Ce286     Ce     0.6454   0.9027   0.9474
Be287     Be     0.7118   0.9433   0.9433
V288     V     0.6346   0.9513   0.9513
Be289     Be     0.5382   0.8067   0.4433
Ce290     Ce     0.6046   0.8026   0.4027
Ce291     Ce     0.6046   0.8473   0.4474
V292     V     0.6153   0.7987   0.4513
Li293     Li     0.6136   0.875   0.375
Be294     Be     0.5382   0.9433   0.3067
Ce295     Ce     0.6046   0.9474   0.3473
Ce296     Ce     0.6046   0.9027   0.3026
V297     V     0.6153   0.9513   0.2987
Ce298     Ce     0.6527   0.3954   0.0526
Be299     Be     0.6933   0.4618   0.0567
Ce300     Ce     0.6974   0.3954   0.0973
V301     V     0.7013   0.3847   0.0487
Li302     Li     0.625   0.3864   0.125
Ce303     Ce     0.5973   0.3954   0.1974
Be304     Be     0.5567   0.4618   0.1933
Ce305     Ce     0.5526   0.3954   0.1527
V306     V     0.5487   0.3846   0.2013
Ce307     Ce     0.9474   0.6454   0.9027
Ce308     Ce     0.9027   0.6454   0.9474
Be309     Be     0.9433   0.7118   0.9433
V310     V     0.9513   0.6346   0.9513
Li311     Li     0.875   0.6364   0.875
Ce312     Ce     0.8026   0.6454   0.8473
Ce313     Ce     0.8473   0.6454   0.8026
Be314     Be     0.8067   0.7118   0.8067
V315     V     0.7987   0.6346   0.7987
Ce316     Ce     0.3954   0.0526   0.6527
Be317     Be     0.4618   0.0567   0.6933
Ce318     Ce     0.3954   0.0973   0.6974
V319     V     0.3846   0.0487   0.7013
Li320     Li     0.3864   0.125   0.625
Ce321     Ce     0.3954   0.1974   0.5973
Be322     Be     0.4618   0.1933   0.5567
Ce323     Ce     0.3954   0.1527   0.5526
V324     V     0.3846   0.2013   0.5487
Be325     Be     0.0567   0.7882   0.5567
Ce326     Ce     0.0526   0.8546   0.5973
Ce327     Ce     0.0973   0.8546   0.5526
V328     V     0.0487   0.8654   0.5487
Li329     Li     0.125   0.8636   0.625
Be330     Be     0.1933   0.7882   0.6933
Ce331     Ce     0.1974   0.8546   0.6527
Ce332     Ce     0.1527   0.8546   0.6974
V333     V     0.2013   0.8654   0.7013
Ce334     Ce     0.1527   0.0526   0.8954
Be335     Be     0.1933   0.0567   0.9619
Ce336     Ce     0.1974   0.0973   0.8954
V337     V     0.2013   0.0487   0.8846
Li338     Li     0.125   0.125   0.8864
Be339     Be     0.0567   0.1933   0.9618
Ce340     Ce     0.0973   0.1974   0.8954
Ce341     Ce     0.0526   0.1527   0.8954
V342     V     0.0487   0.2013   0.8846
H343     H     0.1499   0.9238   0.8262
H344     H     0.1738   0.0762   0.8501
B345     B     0.1616   0.0   0.8384
H346     H     0.3262   0.1001   0.8262
B347     B     0.3384   0.0884   0.75
B348     B     0.25   0.0884   0.8384
H349     H     0.3501   0.0762   0.6738
B350     B     0.3384   0.0   0.6616
H351     H     0.1738   0.8999   0.6738
H352     H     0.3262   0.9238   0.6499
B353     B     0.25   0.9116   0.6616
B354     B     0.1616   0.9116   0.75
Be355     Be     0.4433   0.8067   0.5382
Ce356     Ce     0.4474   0.8473   0.6046
Ce357     Ce     0.4027   0.8026   0.6046
V358     V     0.4513   0.7987   0.6153
Li359     Li     0.375   0.875   0.6136
Ce360     Ce     0.3026   0.9027   0.6046
Be361     Be     0.3067   0.9433   0.5382
Ce362     Ce     0.3473   0.9474   0.6046
V363     V     0.2987   0.9513   0.6154
Be364     Be     0.8067   0.5382   0.4433
Ce365     Ce     0.8473   0.6046   0.4474
Ce366     Ce     0.8026   0.6046   0.4027
V367     V     0.7987   0.6153   0.4513
Li368     Li     0.875   0.6136   0.375
Be369     Be     0.9433   0.5382   0.3067
Ce370     Ce     0.9027   0.6046   0.3026
Ce371     Ce     0.9474   0.6046   0.3473
V372     V     0.9513   0.6153   0.2987
Be373     Be     0.8067   0.8067   0.7118
Ce374     Ce     0.8026   0.8473   0.6454
Ce375     Ce     0.8473   0.8026   0.6454
V376     V     0.7987   0.7987   0.6347
Li377     Li     0.875   0.875   0.6364
Ce378     Ce     0.9027   0.9474   0.6454
Ce379     Ce     0.9474   0.9027   0.6454
Be380     Be     0.9433   0.9433   0.7118
V381     V     0.9513   0.9513   0.6346
H382     H     0.8999   0.1738   0.6738
H383     H     0.9238   0.1499   0.8262
H384     H     0.0762   0.1738   0.8501
H385     H     0.1001   0.3262   0.8262
H386     H     0.9238   0.3262   0.6499
B387     B     0.0   0.3384   0.6616
H388     H     0.0762   0.3501   0.6738
B389     B     0.0884   0.3384   0.75
B390     B     0.0884   0.25   0.8384
B391     B     0.9116   0.25   0.6616
B392     B     0.0   0.1616   0.8384
B393     B     0.9116   0.1616   0.75
Be394     Be     0.7882   0.0567   0.5567
Ce395     Ce     0.8546   0.0526   0.5973
Ce396     Ce     0.8546   0.0973   0.5526
V397     V     0.8654   0.0487   0.5487
Li398     Li     0.8636   0.125   0.625
Be399     Be     0.7882   0.1933   0.6933
Ce400     Ce     0.8546   0.1527   0.6974
Ce401     Ce     0.8546   0.1974   0.6527
V402     V     0.8654   0.2013   0.7013
Ce403     Ce     0.4474   0.1454   0.9027
Be404     Be     0.4433   0.2118   0.9433
Ce405     Ce     0.4027   0.1454   0.9474
V406     V     0.4513   0.1346   0.9513
Li407     Li     0.375   0.1364   0.875
Ce408     Ce     0.3026   0.1454   0.8473
Be409     Be     0.3067   0.2118   0.8067
Ce410     Ce     0.3473   0.1454   0.8026
V411     V     0.2987   0.1347   0.7987
Be412     Be     0.3067   0.8067   0.2118
Ce413     Ce     0.3026   0.8473   0.1454
Ce414     Ce     0.3473   0.8026   0.1454
V415     V     0.2987   0.7987   0.1347
Li416     Li     0.375   0.875   0.1364
Ce417     Ce     0.4474   0.9027   0.1454
Be418     Be     0.4433   0.9433   0.2118
Ce419     Ce     0.4027   0.9474   0.1454
V420     V     0.4513   0.9513   0.1346
Be421     Be     0.0567   0.5567   0.7882
Ce422     Ce     0.0526   0.5973   0.8546
Ce423     Ce     0.0973   0.5526   0.8546
V424     V     0.0487   0.5487   0.8654
Li425     Li     0.125   0.625   0.8636
Be426     Be     0.1933   0.6933   0.7882
Ce427     Ce     0.1527   0.6974   0.8546
Ce428     Ce     0.1974   0.6527   0.8546
V429     V     0.2013   0.7013   0.8654
H430     H     0.1738   0.6738   0.8999
H431     H     0.3262   0.6499   0.9238
B432     B     0.3384   0.6616   0.0
H433     H     0.3501   0.6738   0.0762
H434     H     0.3262   0.8262   0.1001
B435     B     0.3384   0.75   0.0884
B436     B     0.25   0.6616   0.9116
B437     B     0.1616   0.75   0.9116
H438     H     0.1499   0.8262   0.9238
H439     H     0.1738   0.8501   0.0762
B440     B     0.25   0.8384   0.0884
B441     B     0.1616   0.8384   0.0
Be442     Be     0.4618   0.6933   0.0567
Ce443     Ce     0.3954   0.6974   0.0973
Ce444     Ce     0.3954   0.6527   0.0526
V445     V     0.3846   0.7013   0.0487
Li446     Li     0.3864   0.625   0.125
Be447     Be     0.4618   0.5567   0.1933
Ce448     Ce     0.3954   0.5973   0.1974
Ce449     Ce     0.3954   0.5526   0.1527
V450     V     0.3846   0.5487   0.2013
H451     H     0.5762   0.8999   0.0762
H452     H     0.5762   0.0762   0.8999
H453     H     0.6001   0.9238   0.9238
B454     B     0.5884   0.0   0.9116
B455     B     0.5884   0.9116   0.0
H456     H     0.4238   0.1001   0.9238
H457     H     0.4238   0.9238   0.1001
H458     H     0.3999   0.0762   0.0762
B459     B     0.4116   0.0   0.0884
B460     B     0.4116   0.0884   0.0
B461     B     0.5   0.0884   0.9116
B462     B     0.5   0.9116   0.0884
Ce463     Ce     0.3546   0.0526   0.0973
Ce464     Ce     0.3546   0.0973   0.0526
Be465     Be     0.2882   0.0567   0.0567
V466     V     0.3654   0.0487   0.0487
Li467     Li     0.3636   0.125   0.125
Be468     Be     0.2882   0.1933   0.1933
Ce469     Ce     0.3546   0.1974   0.1527
Ce470     Ce     0.3546   0.1527   0.1974
V471     V     0.3654   0.2013   0.2013
H472     H     0.5762   0.6738   0.8501
H473     H     0.6001   0.8262   0.8262
B474     B     0.5884   0.75   0.8384
H475     H     0.5762   0.8501   0.6738
B476     B     0.5   0.8384   0.6616
H477     H     0.4238   0.8262   0.6499
H478     H     0.4238   0.6499   0.8262
B479     B     0.4116   0.6616   0.75
H480     H     0.3999   0.6738   0.6738
B481     B     0.4116   0.75   0.6616
B482     B     0.5   0.6616   0.8384
B483     B     0.5884   0.8384   0.75
Be484     Be     0.3067   0.5382   0.9433
Ce485     Ce     0.3026   0.6046   0.9027
Ce486     Ce     0.3473   0.6046   0.9474
V487     V     0.2987   0.6153   0.9513
Li488     Li     0.375   0.6136   0.875
Be489     Be     0.4433   0.5382   0.8067
Ce490     Ce     0.4027   0.6046   0.8026
Ce491     Ce     0.4474   0.6046   0.8473
V492     V     0.4513   0.6154   0.7987
Ce493     Ce     0.3546   0.6974   0.6527
Ce494     Ce     0.3546   0.6527   0.6974
Be495     Be     0.2882   0.6933   0.6933
V496     V     0.3654   0.7013   0.7013
Li497     Li     0.3636   0.625   0.625
Ce498     Ce     0.3546   0.5526   0.5973
Ce499     Ce     0.3546   0.5973   0.5526
Be500     Be     0.2882   0.5567   0.5567
V501     V     0.3654   0.5487   0.5487
Ce502     Ce     0.4474   0.1046   0.3473
Ce503     Ce     0.4027   0.1046   0.3026
Be504     Be     0.4433   0.0382   0.3067
V505     V     0.4513   0.1154   0.2987
Li506     Li     0.375   0.1136   0.375
Ce507     Ce     0.3026   0.1046   0.4027
Be508     Be     0.3067   0.0382   0.4433
Ce509     Ce     0.3473   0.1046   0.4474
V510     V     0.2987   0.1154   0.4513
Be511     Be     0.3067   0.4433   0.0382
Ce512     Ce     0.3473   0.4474   0.1046
Ce513     Ce     0.3026   0.4027   0.1046
V514     V     0.2987   0.4513   0.1154
Li515     Li     0.375   0.375   0.1136
Ce516     Ce     0.4027   0.3026   0.1046
Ce517     Ce     0.4474   0.3473   0.1046
Be518     Be     0.4433   0.3067   0.0381
V519     V     0.4513   0.2987   0.1154
Ce520     Ce     0.1046   0.4027   0.3026
Ce521     Ce     0.1046   0.4474   0.3473
Be522     Be     0.0381   0.4433   0.3067
V523     V     0.1154   0.4513   0.2987
Li524     Li     0.1136   0.375   0.375
Ce525     Ce     0.1046   0.3473   0.4474
Ce526     Ce     0.1046   0.3026   0.4027
Be527     Be     0.0381   0.3067   0.4433
V528     V     0.1154   0.2987   0.4513
H529     H     0.3262   0.1499   0.4238
H530     H     0.1738   0.1738   0.3999
B531     B     0.25   0.1616   0.4116
B532     B     0.1616   0.25   0.4116
H533     H     0.1499   0.3262   0.4238
H534     H     0.3501   0.1738   0.5762
B535     B     0.3384   0.25   0.5884
H536     H     0.3262   0.3262   0.6001
B537     B     0.25   0.3384   0.5884
H538     H     0.1738   0.3501   0.5762
B539     B     0.1616   0.3384   0.5
B540     B     0.3384   0.1616   0.5
Be541     Be     0.3067   0.3067   0.7118
Ce542     Ce     0.3026   0.3473   0.6454
Ce543     Ce     0.3473   0.3026   0.6454
V544     V     0.2987   0.2987   0.6346
Li545     Li     0.375   0.375   0.6364
Be546     Be     0.4433   0.4433   0.7118
Ce547     Ce     0.4027   0.4474   0.6454
Ce548     Ce     0.4474   0.4027   0.6454
V549     V     0.4513   0.4513   0.6346
H550     H     0.4238   0.3262   0.1499
H551     H     0.3999   0.1738   0.1738
B552     B     0.4116   0.25   0.1616
B553     B     0.5   0.3384   0.1616
H554     H     0.4238   0.1499   0.3262
H555     H     0.5762   0.1738   0.3501
H556     H     0.6001   0.3262   0.3262
B557     B     0.5884   0.25   0.3384
B558     B     0.5   0.1616   0.3384
H559     H     0.5762   0.3501   0.1738
B560     B     0.5884   0.3384   0.25
B561     B     0.4116   0.1616   0.25
Be562     Be     0.7118   0.3067   0.3067
Ce563     Ce     0.6454   0.3026   0.3473
Ce564     Ce     0.6454   0.3473   0.3026
V565     V     0.6346   0.2987   0.2987
Li566     Li     0.6364   0.375   0.375
Be567     Be     0.7118   0.4433   0.4433
Ce568     Ce     0.6454   0.4027   0.4474
Ce569     Ce     0.6454   0.4474   0.4027
V570     V     0.6346   0.4513   0.4513
H571     H     0.4238   0.4238   0.6001
H572     H     0.5762   0.3999   0.5762
H573     H     0.6001   0.4238   0.4238
B574     B     0.5884   0.5   0.4116
B575     B     0.5884   0.4116   0.5
H576     H     0.5762   0.5762   0.3999
H577     H     0.3999   0.5762   0.5762
H578     H     0.4238   0.6001   0.4238
B579     B     0.4116   0.5884   0.5
B580     B     0.5   0.5884   0.4116
B581     B     0.4116   0.5   0.5884
B582     B     0.5   0.4116   0.5884
H583     H     0.1499   0.4238   0.3262
H584     H     0.1738   0.3999   0.1738
B585     B     0.1616   0.4116   0.25
B586     B     0.25   0.4116   0.1616
H587     H     0.3501   0.5762   0.1738
H588     H     0.3262   0.4238   0.1499
B589     B     0.3384   0.5   0.1616
H590     H     0.1738   0.5762   0.3501
H591     H     0.3262   0.6001   0.3262
B592     B     0.25   0.5884   0.3384
B593     B     0.3384   0.5884   0.25
B594     B     0.1616   0.5   0.3384
Be595     Be     0.4433   0.7118   0.4433
Ce596     Ce     0.4474   0.6454   0.4027
Ce597     Ce     0.4027   0.6454   0.4474
V598     V     0.4513   0.6346   0.4513
Li599     Li     0.375   0.6364   0.375
Be600     Be     0.3067   0.7118   0.3067
Ce601     Ce     0.3473   0.6454   0.3026
Ce602     Ce     0.3026   0.6454   0.3473
V603     V     0.2987   0.6346   0.2987
Be604     Be     0.9618   0.0567   0.1933
Ce605     Ce     0.8954   0.0973   0.1974
Ce606     Ce     0.8954   0.0526   0.1527
V607     V     0.8846   0.0487   0.2013
Li608     Li     0.8864   0.125   0.125
Be609     Be     0.9618   0.1933   0.0567
Ce610     Ce     0.8954   0.1527   0.0526
Ce611     Ce     0.8954   0.1974   0.0973
V612     V     0.8846   0.2013   0.0487
H613     H     0.8262   0.1001   0.3262
H614     H     0.6499   0.9238   0.3262
B615     B     0.6616   0.0   0.3384
H616     H     0.6738   0.0762   0.3501
B617     B     0.75   0.0884   0.3384
H618     H     0.6738   0.8999   0.1738
H619     H     0.8501   0.0762   0.1738
H620     H     0.8262   0.9238   0.1499
B621     B     0.8384   0.0   0.1616
B622     B     0.8384   0.0884   0.25
B623     B     0.75   0.9116   0.1616
B624     B     0.6616   0.9116   0.25
Be625     Be     0.6933   0.0567   0.4618
Ce626     Ce     0.6974   0.0973   0.3954
Ce627     Ce     0.6527   0.0526   0.3954
V628     V     0.7013   0.0487   0.3846
Li629     Li     0.625   0.125   0.3864
Ce630     Ce     0.5973   0.1974   0.3954
Be631     Be     0.5567   0.1933   0.4618
Ce632     Ce     0.5526   0.1527   0.3954
V633     V     0.5487   0.2013   0.3846
H634     H     0.6738   0.3501   0.0762
B635     B     0.6616   0.3384   0.0
H636     H     0.6738   0.1738   0.8999
H637     H     0.6499   0.3262   0.9238
B638     B     0.6616   0.25   0.9116
H639     H     0.8262   0.1499   0.9238
H640     H     0.8262   0.3262   0.1001
B641     B     0.75   0.3384   0.0884
H642     H     0.8501   0.1738   0.0762
B643     B     0.8384   0.25   0.0884
B644     B     0.8384   0.1616   0.0
B645     B     0.75   0.1616   0.9116
Be646     Be     0.5567   0.0567   0.7882
Ce647     Ce     0.5973   0.0526   0.8546
Ce648     Ce     0.5526   0.0973   0.8546
V649     V     0.5487   0.0487   0.8654
Li650     Li     0.625   0.125   0.8636
Be651     Be     0.6933   0.1933   0.7882
Ce652     Ce     0.6527   0.1974   0.8546
Ce653     Ce     0.6974   0.1527   0.8546
V654     V     0.7013   0.2013   0.8654
Ce655     Ce     0.1454   0.3026   0.8473
Be656     Be     0.2118   0.3067   0.8067
Ce657     Ce     0.1454   0.3473   0.8026
V658     V     0.1346   0.2987   0.7987
Li659     Li     0.1364   0.375   0.875
Ce660     Ce     0.1454   0.4474   0.9027
Be661     Be     0.2118   0.4433   0.9433
Ce662     Ce     0.1454   0.4027   0.9474
V663     V     0.1346   0.4513   0.9513
Be664     Be     0.1933   0.9618   0.0567
Ce665     Ce     0.1974   0.8954   0.0973
Ce666     Ce     0.1527   0.8954   0.0526
V667     V     0.2013   0.8846   0.0487
Li668     Li     0.125   0.8864   0.125
Be669     Be     0.0567   0.9618   0.1933
Ce670     Ce     0.0526   0.8954   0.1527
Ce671     Ce     0.0973   0.8954   0.1974
V672     V     0.0487   0.8846   0.2013
Ce673     Ce     0.9027   0.4474   0.1454
Be674     Be     0.9433   0.4433   0.2118
Ce675     Ce     0.9474   0.4027   0.1454
V676     V     0.9513   0.4513   0.1346
Li677     Li     0.875   0.375   0.1364
Ce678     Ce     0.8473   0.3026   0.1454
Be679     Be     0.8067   0.3067   0.2118
Ce680     Ce     0.8026   0.3473   0.1454
V681     V     0.7987   0.2987   0.1346
Ce682     Ce     0.1527   0.3546   0.1974
Ce683     Ce     0.1974   0.3546   0.1527
Be684     Be     0.1933   0.2882   0.1933
V685     V     0.2013   0.3654   0.2013
Li686     Li     0.125   0.3636   0.125
Ce687     Ce     0.0973   0.3546   0.0526
Ce688     Ce     0.0526   0.3546   0.0973
Be689     Be     0.0567   0.2882   0.0567
V690     V     0.0487   0.3654   0.0487
H691     H     0.0762   0.5762   0.8999
H692     H     0.8999   0.5762   0.0762
H693     H     0.9238   0.6001   0.9238
B694     B     0.9116   0.5884   0.0
B695     B     0.0   0.5884   0.9116
H696     H     0.1001   0.4238   0.9238
H697     H     0.9238   0.4238   0.1001
H698     H     0.0762   0.3999   0.0762
B699     B     0.0   0.4116   0.0884
B700     B     0.0884   0.4116   0.0
B701     B     0.0884   0.5   0.9116
B702     B     0.9116   0.5   0.0884
H703     H     0.9238   0.8262   0.1499
B704     B     0.9116   0.75   0.1616
H705     H     0.0762   0.6738   0.3501
B706     B     0.0   0.6616   0.3384
H707     H     0.8999   0.6738   0.1738
H708     H     0.9238   0.6499   0.3262
B709     B     0.9116   0.6616   0.25
H710     H     0.1001   0.8262   0.3262
B711     B     0.0884   0.75   0.3384
H712     H     0.0762   0.8501   0.1738
B713     B     0.0884   0.8384   0.25
B714     B     0.0   0.8384   0.1616
Be715     Be     0.7882   0.5567   0.0567
Ce716     Ce     0.8546   0.5973   0.0526
Ce717     Ce     0.8546   0.5526   0.0973
V718     V     0.8654   0.5487   0.0487
Li719     Li     0.8636   0.625   0.125
Be720     Be     0.7882   0.6933   0.1933
Ce721     Ce     0.8546   0.6527   0.1974
Ce722     Ce     0.8546   0.6974   0.1527
V723     V     0.8654   0.7013   0.2013
Ce724     Ce     0.1454   0.8473   0.3026
Be725     Be     0.2118   0.8067   0.3067
Ce726     Ce     0.1454   0.8026   0.3473
V727     V     0.1346   0.7987   0.2987
Li728     Li     0.1364   0.875   0.375
Ce729     Ce     0.1454   0.9027   0.4474
Be730     Be     0.2118   0.9433   0.4433
Ce731     Ce     0.1454   0.9474   0.4027
V732     V     0.1346   0.9513   0.4513
Be733     Be     0.8067   0.2118   0.3067
Ce734     Ce     0.8473   0.1454   0.3026
Ce735     Ce     0.8026   0.1454   0.3473
V736     V     0.7987   0.1347   0.2987
Li737     Li     0.875   0.1364   0.375
Ce738     Ce     0.9027   0.1454   0.4474
Be739     Be     0.9433   0.2118   0.4433
Ce740     Ce     0.9474   0.1454   0.4027
V741     V     0.9513   0.1346   0.4513
H742     H     0.8999   0.0762   0.5762
H743     H     0.0762   0.8999   0.5762
H744     H     0.9238   0.9238   0.6001
B745     B     0.0   0.9116   0.5884
B746     B     0.9116   0.0   0.5884
H747     H     0.1001   0.9238   0.4238
H748     H     0.9238   0.1001   0.4238
H749     H     0.0762   0.0762   0.3999
B750     B     0.0   0.0884   0.4116
B751     B     0.0884   0.0   0.4116
B752     B     0.0884   0.9116   0.5
B753     B     0.9116   0.0884   0.5
Ce754     Ce     0.0526   0.0973   0.3546
Ce755     Ce     0.0973   0.0526   0.3546
Be756     Be     0.0567   0.0567   0.2882
V757     V     0.0487   0.0487   0.3654
Li758     Li     0.125   0.125   0.3636
Ce759     Ce     0.1974   0.1527   0.3546
Ce760     Ce     0.1527   0.1974   0.3546
Be761     Be     0.1933   0.1933   0.2882
V762     V     0.2013   0.2013   0.3654
Ce763     Ce     0.5973   0.3546   0.5526
Ce764     Ce     0.5526   0.3546   0.5973
Be765     Be     0.5567   0.2882   0.5567
V766     V     0.5487   0.3654   0.5487
Li767     Li     0.625   0.3636   0.625
Ce768     Ce     0.6527   0.3546   0.6974
Ce769     Ce     0.6974   0.3546   0.6527
Be770     Be     0.6933   0.2882   0.6933
V771     V     0.7013   0.3654   0.7013
H772     H     0.8501   0.5762   0.6738
H773     H     0.8262   0.6001   0.8262
B774     B     0.75   0.5884   0.8384
B775     B     0.8384   0.5884   0.75
H776     H     0.6738   0.3999   0.6738
H777     H     0.8262   0.4238   0.6499
B778     B     0.75   0.4116   0.6616
B779     B     0.8384   0.5   0.6616
B780     B     0.6616   0.4116   0.75
H781     H     0.6738   0.5762   0.8501
H782     H     0.6499   0.4238   0.8262
B783     B     0.6616   0.5   0.8384
Ce784     Ce     0.8473   0.4474   0.6046
Ce785     Ce     0.8026   0.4027   0.6046
Be786     Be     0.8067   0.4433   0.5381
V787     V     0.7987   0.4513   0.6154
Li788     Li     0.875   0.375   0.6136
Be789     Be     0.9433   0.3067   0.5382
Ce790     Ce     0.9027   0.3026   0.6046
Ce791     Ce     0.9474   0.3473   0.6046
V792     V     0.9513   0.2987   0.6153
Ti793     Ti     0.9086   0.4769   0.2731
Ti794     Ti     0.9769   0.4086   0.2731
Ti795     Ti     0.9769   0.4769   0.3414
Er796     Er     0.9803   0.4803   0.2697
He797     He     0.9226   0.4226   0.3274
Ti798     Ti     0.9086   0.2731   0.4769
Ti799     Ti     0.9769   0.2731   0.4086
Ti800     Ti     0.9769   0.3414   0.4769
Er801     Er     0.9803   0.2697   0.4803
He802     He     0.9226   0.3274   0.4226
S803     S     0.8944   0.3556   0.3556
S804     S     0.8944   0.3944   0.3944
Ti805     Ti     0.8414   0.4769   0.4769
Ti806     Ti     0.7731   0.4086   0.4769
Ti807     Ti     0.7731   0.4769   0.4085
Er808     Er     0.7697   0.4803   0.4803
He809     He     0.8274   0.4226   0.4226
Ti810     Ti     0.8414   0.2731   0.2731
Ti811     Ti     0.7731   0.2731   0.3414
Ti812     Ti     0.7731   0.3415   0.2731
Er813     Er     0.7697   0.2697   0.2697
He814     He     0.8274   0.3274   0.3274
S815     S     0.8556   0.3556   0.3944
S816     S     0.8556   0.3944   0.3556
loop_
_geom_bond_atom_site_label_1
_geom_bond_atom_site_label_2
_geom_bond_distance
_geom_bond_site_symmetry_2
_ccdc_geom_bond_type
Ti1     Be255    10.0   .     S
Ti1     Be304    10.0   .     S
Ti1     He5    9.999   .     S
Ti2     Be255    10.0   .     S
Ti2     Be447    10.0   .     S
Ti2     He5    9.999   .     S
Ti3     Be447    10.0   .     S
Ti3     Be304    10.0   .     S
Ti3     He5    9.999   .     S
Er4     Be255    10.0   .     S
Er4     Be447    10.0   .     S
Er4     Be304    10.0   .     S
He5     S12    10.001   .     S
He5     S18    10.001   .     S
He5     S6    10.001   .     S
S6     He11    10.001   .     S
S6     He17    10.001   .     S
Ti7     Be183    10.0   .     S
Ti7     Be232    10.0   1_554     S
Ti7     He11    9.999   .     S
Ti8     Be232    10.0   1_554     S
Ti8     Be442    10.0   .     S
Ti8     He11    9.999   .     S
Ti9     Be183    10.0   .     S
Ti9     Be442    10.0   .     S
Ti9     He11    9.999   .     S
Er10     Be183    10.0   .     S
Er10     Be232    10.0   1_554     S
Er10     Be442    10.0   .     S
He11     S24    10.001   .     S
He11     S12    10.001   .     S
S12     He23    10.001   .     S
Ti13     Be237    10.0   1_554     S
Ti13     Be299    10.0   .     S
Ti13     He17    9.999   .     S
Ti14     Be715    10.0   .     S
Ti14     Be237    10.0   1_554     S
Ti14     He17    9.999   .     S
Ti15     Be715    10.0   .     S
Ti15     Be299    10.0   .     S
Ti15     He17    9.999   .     S
Er16     Be715    10.0   .     S
Er16     Be237    10.0   1_554     S
Er16     Be299    10.0   .     S
He17     S24    10.001   .     S
He17     S18    10.001   .     S
S18     He23    10.001   .     S
Ti19     Be720    10.0   .     S
Ti19     Be260    10.0   .     S
Ti19     He23    9.999   .     S
Ti20     Be260    10.0   .     S
Ti20     Be178    10.0   .     S
Ti20     He23    9.999   .     S
Ti21     Be720    10.0   .     S
Ti21     Be178    10.0   .     S
Ti21     He23    9.999   .     S
Er22     Be720    10.0   .     S
Er22     Be260    10.0   .     S
Er22     Be178    10.0   .     S
He23     S24    10.001   .     S
Ti25     Be175    10.0   .     S
Ti25     Be500    10.0   .     S
Ti25     He29    9.999   .     S
Ti26     Be500    10.0   .     S
Ti26     Be276    10.0   .     S
Ti26     He29    9.999   .     S
Ti27     Be175    10.0   .     S
Ti27     Be276    10.0   .     S
Ti27     He29    9.999   .     S
Er28     Be175    10.0   .     S
Er28     Be500    10.0   .     S
Er28     Be276    10.0   .     S
He29     S48    10.001   .     S
He29     S35    10.001   .     S
He29     S47    10.001   .     S
Ti30     Be421    10.0   .     S
Ti30     Be214    10.0   1_455     S
Ti30     He34    9.999   .     S
Ti31     Be271    10.0   .     S
Ti31     Be214    10.0   1_455     S
Ti31     He34    9.999   .     S
Ti32     Be271    10.0   .     S
Ti32     Be421    10.0   .     S
Ti32     He34    9.999   .     S
Er33     Be271    10.0   .     S
Er33     Be421    10.0   .     S
Er33     Be214    10.0   1_455     S
He34     S46    10.001   .     S
He34     S47    10.001   .     S
He34     S35    10.001   .     S
S35     He40    10.001   .     S
Ti36     Be495    10.0   .     S
Ti36     Be330    10.0   .     S
Ti36     He40    9.999   .     S
Ti37     Be426    10.0   .     S
Ti37     Be495    10.0   .     S
Ti37     He40    9.999   .     S
Ti38     Be426    10.0   .     S
Ti38     Be330    10.0   .     S
Ti38     He40    9.999   .     S
Er39     Be426    10.0   .     S
Er39     Be495    10.0   .     S
Er39     Be330    10.0   .     S
He40     S48    10.001   .     S
He40     S46    10.001   .     S
Ti41     Be325    10.0   .     S
Ti41     Be219    10.0   1_455     S
Ti41     He45    9.999   .     S
Ti42     Be170    10.0   .     S
Ti42     Be219    10.0   1_455     S
Ti42     He45    9.999   .     S
Ti43     Be170    10.0   .     S
Ti43     Be325    10.0   .     S
Ti43     He45    9.999   .     S
Er44     Be170    10.0   .     S
Er44     Be325    10.0   .     S
Er44     Be219    10.0   1_455     S
He45     S46    10.001   .     S
He45     S47    10.001   .     S
He45     S48    10.001   .     S
Ti49     Be194    10.0   1_655     S
Ti49     Be206    10.0   1_556     S
Ti49     He53    9.999   .     S
Ti50     Be309    10.0   .     S
Ti50     Be206    10.0   1_556     S
Ti50     He53    9.999   .     S
Ti51     Be309    10.0   .     S
Ti51     Be194    10.0   1_655     S
Ti51     He53    9.999   .     S
Er52     Be309    10.0   .     S
Er52     Be194    10.0   1_655     S
Er52     Be206    10.0   1_556     S
He53     S71    10.001   .     S
He53     S70    10.001   .     S
He53     S69    10.001   .     S
Ti54     Be280    10.0   .     S
Ti54     Be373    10.0   .     S
Ti54     He58    9.999   .     S
Ti55     Be314    10.0   .     S
Ti55     Be373    10.0   .     S
Ti55     He58    9.999   .     S
Ti56     Be314    10.0   .     S
Ti56     Be280    10.0   .     S
Ti56     He58    9.999   .     S
Er57     Be314    10.0   .     S
Er57     Be280    10.0   .     S
Er57     Be373    10.0   .     S
He58     S72    10.001   .     S
He58     S69    10.001   .     S
He58     S70    10.001   .     S
Ti59     Be197    10.0   1_565     S
Ti59     Be287    10.0   .     S
Ti59     He63    9.999   .     S
Ti60     Be212    10.0   1_556     S
Ti60     Be287    10.0   .     S
Ti60     He63    9.999   .     S
Ti61     Be197    10.0   1_565     S
Ti61     Be212    10.0   1_556     S
Ti61     He63    9.999   .     S
Er62     Be197    10.0   1_565     S
Er62     Be212    10.0   1_556     S
Er62     Be287    10.0   .     S
He63     S72    10.001   .     S
He63     S71    10.001   .     S
He63     S69    10.001   .     S
Ti64     Be203    10.0   1_565     S
Ti64     Be189    10.0   1_655     S
Ti64     He68    9.999   .     S
Ti65     Be380    10.0   .     S
Ti65     Be189    10.0   1_655     S
Ti65     He68    9.999   .     S
Ti66     Be380    10.0   .     S
Ti66     Be203    10.0   1_565     S
Ti66     He68    9.999   .     S
Er67     Be380    10.0   .     S
Er67     Be203    10.0   1_565     S
Er67     Be189    10.0   1_655     S
He68     S71    10.001   .     S
He68     S70    10.001   .     S
He68     S72    10.001   .     S
Ti73     Be394    10.0   .     S
Ti73     Be625    10.0   .     S
Ti73     He77    9.999   .     S
Ti74     Be394    10.0   .     S
Ti74     Be223    10.0   1_545     S
Ti74     He77    9.999   .     S
Ti75     Be625    10.0   .     S
Ti75     Be223    10.0   1_545     S
Ti75     He77    9.999   .     S
Er76     Be394    10.0   .     S
Er76     Be625    10.0   .     S
Er76     Be223    10.0   1_545     S
He77     S89    10.001   .     S
He77     S95    10.001   .     S
He77     S78    10.001   .     S
S78     He83    10.001   .     S
S78     He88    10.001   .     S
Ti79     Be399    10.0   .     S
Ti79     Be770    10.0   .     S
Ti79     He83    9.999   .     S
Ti80     Be651    10.0   .     S
Ti80     Be770    10.0   .     S
Ti80     He83    9.999   .     S
Ti81     Be399    10.0   .     S
Ti81     Be651    10.0   .     S
Ti81     He83    9.999   .     S
Er82     Be399    10.0   .     S
Er82     Be651    10.0   .     S
Er82     Be770    10.0   .     S
He83     S96    10.001   .     S
He83     S89    10.001   .     S
Ti84     Be631    10.0   .     S
Ti84     Be765    10.0   .     S
Ti84     He88    9.999   .     S
Ti85     Be322    10.0   .     S
Ti85     Be765    10.0   .     S
Ti85     He88    9.999   .     S
Ti86     Be322    10.0   .     S
Ti86     Be631    10.0   .     S
Ti86     He88    9.999   .     S
Er87     Be322    10.0   .     S
Er87     Be631    10.0   .     S
Er87     Be765    10.0   .     S
He88     S96    10.001   .     S
He88     S95    10.001   .     S
S89     He94    10.001   .     S
Ti90     Be646    10.0   .     S
Ti90     Be228    10.0   1_545     S
Ti90     He94    9.999   .     S
Ti91     Be317    10.0   .     S
Ti91     Be228    10.0   1_545     S
Ti91     He94    9.999   .     S
Ti92     Be317    10.0   .     S
Ti92     Be646    10.0   .     S
Ti92     He94    9.999   .     S
Er93     Be317    10.0   .     S
Er93     Be646    10.0   .     S
Er93     Be228    10.0   1_545     S
He94     S95    10.001   .     S
He94     S96    10.001   .     S
Ti97     Be504    10.0   1_565     S
Ti97     Be418    10.0   .     S
Ti97     He101    9.999   .     S
Ti98     Be294    10.0   .     S
Ti98     Be418    10.0   .     S
Ti98     He101    9.999   .     S
Ti99     Be294    10.0   .     S
Ti99     Be504    10.0   1_565     S
Ti99     He101    9.999   .     S
Er100     Be294    10.0   .     S
Er100     Be504    10.0   1_565     S
Er100     Be418    10.0   .     S
He101     S107    10.001   .     S
He101     S120    10.001   .     S
He101     S108    10.001   .     S
Ti102     Be730    10.0   .     S
Ti102     Be361    10.0   .     S
Ti102     He106    9.999   .     S
Ti103     Be508    10.0   1_565     S
Ti103     Be361    10.0   .     S
Ti103     He106    9.999   .     S
Ti104     Be508    10.0   1_565     S
Ti104     Be730    10.0   .     S
Ti104     He106    9.999   .     S
Er105     Be508    10.0   1_565     S
Er105     Be730    10.0   .     S
Er105     Be361    10.0   .     S
He106     S107    10.001   .     S
He106     S114    10.001   .     S
He106     S108    10.001   .     S
S107     He119    10.001   .     S
S108     He113    10.001   .     S
Ti109     Be289    10.0   .     S
Ti109     Be355    10.0   .     S
Ti109     He113    9.999   .     S
Ti110     Be595    10.0   .     S
Ti110     Be355    10.0   .     S
Ti110     He113    9.999   .     S
Ti111     Be289    10.0   .     S
Ti111     Be595    10.0   .     S
Ti111     He113    9.999   .     S
Er112     Be289    10.0   .     S
Er112     Be595    10.0   .     S
Er112     Be355    10.0   .     S
He113     S114    10.001   .     S
He113     S120    10.001   .     S
S114     He119    10.001   .     S
Ti115     Be725    10.0   .     S
Ti115     Be412    10.0   .     S
Ti115     He119    9.999   .     S
Ti116     Be600    10.0   .     S
Ti116     Be412    10.0   .     S
Ti116     He119    9.999   .     S
Ti117     Be600    10.0   .     S
Ti117     Be725    10.0   .     S
Ti117     He119    9.999   .     S
Er118     Be600    10.0   .     S
Er118     Be725    10.0   .     S
Er118     Be412    10.0   .     S
He119     S120    10.001   .     S
Ti121     Be761    10.0   .     S
Ti121     Be468    10.0   .     S
Ti121     He125    9.999   .     S
Ti122     Be468    10.0   .     S
Ti122     Be684    10.0   .     S
Ti122     He125    9.999   .     S
Ti123     Be761    10.0   .     S
Ti123     Be684    10.0   .     S
Ti123     He125    9.999   .     S
Er124     Be761    10.0   .     S
Er124     Be468    10.0   .     S
Er124     Be684    10.0   .     S
He125     S137    10.001   .     S
He125     S126    10.001   .     S
He125     S143    10.001   .     S
S126     He131    10.001   .     S
S126     He142    10.001   .     S
Ti127     Be669    10.0   1_545     S
Ti127     Be756    10.0   .     S
Ti127     He131    9.999   .     S
Ti128     Be604    10.0   1_455     S
Ti128     Be756    10.0   .     S
Ti128     He131    9.999   .     S
Ti129     Be669    10.0   1_545     S
Ti129     Be604    10.0   1_455     S
Ti129     He131    9.999   .     S
Er130     Be669    10.0   1_545     S
Er130     Be604    10.0   1_455     S
Er130     Be756    10.0   .     S
He131     S137    10.001   .     S
He131     S144    10.001   .     S
Ti132     Be339    10.0   1_554     S
Ti132     Be689    10.0   .     S
Ti132     He136    9.999   .     S
Ti133     Be609    10.0   1_455     S
Ti133     Be689    10.0   .     S
Ti133     He136    9.999   .     S
Ti134     Be339    10.0   1_554     S
Ti134     Be609    10.0   1_455     S
Ti134     He136    9.999   .     S
Er135     Be339    10.0   1_554     S
Er135     Be609    10.0   1_455     S
Er135     Be689    10.0   .     S
He136     S144    10.001   .     S
He136     S143    10.001   .     S
He136     S137    10.001   .     S
Ti138     Be465    10.0   .     S
Ti138     Be664    10.0   1_545     S
Ti138     He142    9.999   .     S
Ti139     Be465    10.0   .     S
Ti139     Be335    10.0   1_554     S
Ti139     He142    9.999   .     S
Ti140     Be664    10.0   1_545     S
Ti140     Be335    10.0   1_554     S
Ti140     He142    9.999   .     S
Er141     Be465    10.0   .     S
Er141     Be664    10.0   1_545     S
Er141     Be335    10.0   1_554     S
He142     S144    10.001   .     S
He142     S143    10.001   .     S
Ti145     Be511    10.0   1_556     S
Ti145     Be661    10.0   .     S
Ti145     He149    9.999   .     S
Ti146     Be484    10.0   .     S
Ti146     Be661    10.0   .     S
Ti146     He149    9.999   .     S
Ti147     Be511    10.0   1_556     S
Ti147     Be484    10.0   .     S
Ti147     He149    9.999   .     S
Er148     Be511    10.0   1_556     S
Er148     Be484    10.0   .     S
Er148     Be661    10.0   .     S
He149     S168    10.001   .     S
He149     S155    10.001   .     S
He149     S156    10.001   .     S
Ti150     Be404    10.0   .     S
Ti150     Be518    10.0   1_556     S
Ti150     He154    9.999   .     S
Ti151     Be267    10.0   .     S
Ti151     Be518    10.0   1_556     S
Ti151     He154    9.999   .     S
Ti152     Be404    10.0   .     S
Ti152     Be267    10.0   .     S
Ti152     He154    9.999   .     S
Er153     Be404    10.0   .     S
Er153     Be267    10.0   .     S
Er153     Be518    10.0   1_556     S
He154     S162    10.001   .     S
He154     S155    10.001   .     S
He154     S156    10.001   .     S
S155     He167    10.001   .     S
S156     He161    10.001   .     S
Ti157     Be541    10.0   .     S
Ti157     Be656    10.0   .     S
Ti157     He161    9.999   .     S
Ti158     Be409    10.0   .     S
Ti158     Be656    10.0   .     S
Ti158     He161    9.999   .     S
Ti159     Be541    10.0   .     S
Ti159     Be409    10.0   .     S
Ti159     He161    9.999   .     S
Er160     Be541    10.0   .     S
Er160     Be409    10.0   .     S
Er160     Be656    10.0   .     S
He161     S168    10.001   .     S
He161     S162    10.001   .     S
S162     He167    10.001   .     S
Ti163     Be489    10.0   .     S
Ti163     Be262    10.0   .     S
Ti163     He167    9.999   .     S
Ti164     Be546    10.0   .     S
Ti164     Be489    10.0   .     S
Ti164     He167    9.999   .     S
Ti165     Be546    10.0   .     S
Ti165     Be262    10.0   .     S
Ti165     He167    9.999   .     S
Er166     Be546    10.0   .     S
Er166     Be489    10.0   .     S
Er166     Be262    10.0   .     S
He167     S168    10.001   .     S
Ce169     Be170    9.999   .     S
Ce169     Li173    10.0   .     S
Ce169     B706    10.0   .     S
Be170     Ce171    9.999   .     S
Be170     V172    10.0   .     S
Ce171     Li173    10.0   .     S
Ce171     B711    10.0   .     S
V172     B711    10.0   .     S
V172     B706    10.0   .     S
Li173     H705    10.0   .     S
Li173     H590    10.0   .     S
Li173     Ce174    10.0   .     S
Li173     Ce176    10.0   .     S
Ce174     Be175    9.999   .     S
Ce174     B592    10.0   .     S
Be175     Ce176    9.999   .     S
Be175     V177    10.0   .     S
Ce176     B594    10.0   .     S
V177     B594    10.0   .     S
V177     B592    10.0   .     S
Be178     Ce179    9.999   .     S
Be178     V181    10.0   .     S
Be178     Ce180    9.999   .     S
Ce179     Li182    10.0   .     S
Ce179     B624    10.0   .     S
Ce180     Li182    10.0   .     S
Ce180     B623    10.0   .     S
V181     B624    10.0   .     S
V181     B623    10.0   .     S
Li182     H618    10.0   .     S
Li182     H451    10.0   .     S
Li182     Ce185    10.0   .     S
Li182     Ce184    10.0   .     S
Be183     Ce185    9.999   .     S
Be183     V186    10.0   .     S
Be183     Ce184    9.999   .     S
Ce184     B455    10.0   .     S
Ce185     B462    10.0   .     S
V186     B462    10.0   .     S
V186     B455    10.0   .     S
Ce187     Be189    9.999   .     S
Ce187     Li191    10.0   .     S
Ce187     B354    10.0   .     S
Ce188     Be189    9.999   .     S
Ce188     Li191    10.0   .     S
Ce188     B345    10.0   1_565     S
Be189     Ti64    10.0   1_455     S
Be189     Er67    10.0   1_455     S
Be189     Ti65    10.0   1_455     S
Be189     V190    10.0   .     S
V190     B354    10.0   .     S
V190     B345    10.0   1_565     S
Li191     H343    10.0   .     S
Li191     H438    10.0   .     S
Li191     Ce193    10.0   .     S
Li191     Ce192    10.0   .     S
Ce192     Be194    9.999   .     S
Ce192     B441    10.0   1_556     S
Ce193     Be194    9.999   .     S
Ce193     B437    10.0   .     S
Be194     Ti49    10.0   1_455     S
Be194     Er52    10.0   1_455     S
Be194     Ti51    10.0   1_455     S
Be194     V195    10.0   .     S
V195     B441    10.0   1_556     S
V195     B437    10.0   .     S
Ce196     Be197    9.999   .     S
Ce196     Li200    10.0   .     S
Ce196     B645    10.0   .     S
Be197     Ti59    10.0   1_545     S
Be197     Er62    10.0   1_545     S
Be197     Ti61    10.0   1_545     S
Be197     Ce198    9.999   .     S
Be197     V199    10.0   .     S
Ce198     Li200    10.0   .     S
Ce198     B644    10.0   1_556     S
V199     B645    10.0   .     S
V199     B644    10.0   1_556     S
Li200     H639    10.0   .     S
Li200     H383    10.0   .     S
Li200     Ce202    10.0   .     S
Li200     Ce201    10.0   .     S
Ce201     Be203    9.999   .     S
Ce201     B392    10.0   1_655     S
Ce202     Be203    9.999   .     S
Ce202     B393    10.0   .     S
Be203     Ti64    10.0   1_545     S
Be203     Er67    10.0   1_545     S
Be203     Ti66    10.0   1_545     S
Be203     V204    10.0   .     S
V204     B392    10.0   1_655     S
V204     B393    10.0   .     S
Ce205     Be206    9.999   .     S
Ce205     Li209    10.0   .     S
Ce205     B704    10.0   .     S
Be206     Ti49    10.0   1_554     S
Be206     Er52    10.0   1_554     S
Be206     Ti50    10.0   1_554     S
Be206     Ce207    9.999   .     S
Be206     V208    10.0   .     S
Ce207     Li209    10.0   .     S
Ce207     B714    10.0   1_655     S
V208     B704    10.0   .     S
V208     B714    10.0   1_655     S
Li209     H703    10.0   .     S
Li209     H620    10.0   .     S
Li209     Ce211    10.0   .     S
Li209     Ce210    10.0   .     S
Ce210     Be212    9.999   .     S
Ce210     B621    10.0   1_565     S
Ce211     Be212    9.999   .     S
Ce211     B623    10.0   .     S
Be212     Ti60    10.0   1_554     S
Be212     Er62    10.0   1_554     S
Be212     Ti61    10.0   1_554     S
Be212     V213    10.0   .     S
V213     B621    10.0   1_565     S
V213     B623    10.0   .     S
Be214     Ti30    10.0   1_655     S
Be214     Er33    10.0   1_655     S
Be214     Ti31    10.0   1_655     S
Be214     Ce216    9.999   .     S
Be214     V217    10.0   .     S
Be214     Ce215    9.999   .     S
Ce215     Li218    10.0   .     S
Ce215     B779    10.0   .     S
Ce216     Li218    10.0   .     S
Ce216     B775    10.0   .     S
V217     B775    10.0   .     S
V217     B779    10.0   .     S
Li218     H772    10.0   .     S
Li218     H244    10.0   .     S
Li218     Ce220    10.0   .     S
Li218     Ce221    10.0   .     S
Be219     Ti42    10.0   1_655     S
Be219     Er44    10.0   1_655     S
Be219     Ti41    10.0   1_655     S
Be219     Ce221    9.999   .     S
Be219     V222    10.0   .     S
Be219     Ce220    9.999   .     S
Ce220     B252    10.0   .     S
Ce221     B245    10.0   .     S
V222     B252    10.0   .     S
V222     B245    10.0   .     S
Be223     Ti74    10.0   1_565     S
Be223     Er76    10.0   1_565     S
Be223     Ti75    10.0   1_565     S
Be223     Ce225    9.999   .     S
Be223     V226    10.0   .     S
Be223     Ce224    9.999   .     S
Ce224     Li227    10.0   .     S
Ce224     B251    10.0   .     S
Ce225     Li227    10.0   .     S
Ce225     B243    10.0   .     S
V226     B251    10.0   .     S
V226     B243    10.0   .     S
Li227     H241    10.0   .     S
Li227     H475    10.0   .     S
Li227     Ce229    10.0   .     S
Li227     Ce230    10.0   .     S
Be228     Ti90    10.0   1_565     S
Be228     Er93    10.0   1_565     S
Be228     Ti91    10.0   1_565     S
Be228     Ce230    9.999   .     S
Be228     V231    10.0   .     S
Be228     Ce229    9.999   .     S
Ce229     B483    10.0   .     S
Ce230     B476    10.0   .     S
V231     B483    10.0   .     S
V231     B476    10.0   .     S
Be232     Ti8    10.0   1_556     S
Be232     Er10    10.0   1_556     S
Be232     Ti7    10.0   1_556     S
Be232     Ce233    9.999   .     S
Be232     V235    10.0   .     S
Be232     Ce234    9.999   .     S
Ce233     Li236    10.0   .     S
Ce233     B474    10.0   .     S
Ce234     Li236    10.0   .     S
Ce234     B482    10.0   .     S
V235     B474    10.0   .     S
V235     B482    10.0   .     S
Li236     H472    10.0   .     S
Li236     H781    10.0   .     S
Li236     Ce239    10.0   .     S
Li236     Ce238    10.0   .     S
Be237     Ti13    10.0   1_556     S
Be237     Er16    10.0   1_556     S
Be237     Ti14    10.0   1_556     S
Be237     Ce238    9.999   .     S
Be237     V240    10.0   .     S
Be237     Ce239    9.999   .     S
Ce238     B783    10.0   .     S
Ce239     B774    10.0   .     S
V240     B774    10.0   .     S
V240     B783    10.0   .     S
H241     B251    10.0   .     S
H241     B243    10.0   .     S
H242     B243    10.0   .     S
H242     B252    10.0   .     S
H242     Li377    10.0   .     S
B243     V376    10.0   .     S
B243     Ce374    10.0   .     S
H244     B252    10.0   .     S
H244     B245    10.0   .     S
B245     V367    10.0   .     S
B245     Ce365    10.0   .     S
B245     H246    10.0   .     S
H246     B250    10.0   .     S
H246     Li368    10.0   .     S
H247     B251    10.0   .     S
H247     B248    10.0   .     S
H247     Li293    10.0   .     S
B248     V292    10.0   .     S
B248     Ce290    10.0   .     S
B248     V261    10.0   .     S
B248     Ce259    10.0   .     S
B248     H249    10.0   .     S
H249     B250    10.0   .     S
H249     Li257    10.0   .     S
B250     V367    10.0   .     S
B250     Ce366    10.0   .     S
B250     V261    10.0   .     S
B250     Ce258    10.0   .     S
B251     V292    10.0   .     S
B251     Ce291    10.0   .     S
B252     V376    10.0   .     S
B252     Ce375    10.0   .     S
Ce253     Be255    9.999   .     S
Ce253     Li257    10.0   .     S
Ce253     B580    10.0   .     S
Ce254     Be255    9.999   .     S
Ce254     Li257    10.0   .     S
Ce254     B574    10.0   .     S
Be255     V256    10.0   .     S
V256     B574    10.0   .     S
V256     B580    10.0   .     S
Li257     Ce259    10.0   .     S
Li257     Ce258    10.0   .     S
Li257     H576    10.0   .     S
Ce258     Be260    9.999   .     S
Ce259     Be260    9.999   .     S
Be260     V261    10.0   .     S
Be262     Ce263    9.999   .     S
Be262     V265    10.0   .     S
Be262     Ce264    9.999   .     S
Ce263     Li266    10.0   .     S
Ce263     B783    10.0   .     S
Ce264     Li266    10.0   .     S
Ce264     B780    10.0   .     S
V265     B783    10.0   .     S
V265     B780    10.0   .     S
Li266     H782    10.0   .     S
Li266     H637    10.0   .     S
Li266     Ce269    10.0   .     S
Li266     Ce268    10.0   .     S
Be267     Ce269    9.999   .     S
Be267     V270    10.0   .     S
Be267     Ce268    9.999   .     S
Ce268     B638    10.0   .     S
Ce269     B635    10.0   1_556     S
V270     B638    10.0   .     S
V270     B635    10.0   1_556     S
Be271     Ce272    9.999   .     S
Be271     V274    10.0   .     S
Be271     Ce273    9.999   .     S
Ce272     Li275    10.0   .     S
Ce272     B389    10.0   .     S
Ce273     Li275    10.0   .     S
Ce273     B387    10.0   .     S
V274     B389    10.0   .     S
V274     B387    10.0   .     S
Li275     H388    10.0   .     S
Li275     H538    10.0   .     S
Li275     Ce277    10.0   .     S
Li275     Ce278    10.0   .     S
Be276     Ce277    9.999   .     S
Be276     V279    10.0   .     S
Be276     Ce278    9.999   .     S
Ce277     B539    10.0   .     S
Ce278     B537    10.0   .     S
V279     B539    10.0   .     S
V279     B537    10.0   .     S
Be280     Ce281    9.999   .     S
Be280     V283    10.0   .     S
Be280     Ce282    9.999   .     S
Ce281     Li284    10.0   .     S
Ce281     B474    10.0   .     S
Ce282     Li284    10.0   .     S
Ce282     B483    10.0   .     S
V283     B483    10.0   .     S
V283     B474    10.0   .     S
Li284     H473    10.0   .     S
Li284     H453    10.0   .     S
Li284     Ce285    10.0   .     S
Li284     Ce286    10.0   .     S
Ce285     Be287    9.999   .     S
Ce285     B454    10.0   1_565     S
Ce286     Be287    9.999   .     S
Ce286     B455    10.0   1_556     S
Be287     V288    10.0   .     S
V288     B455    10.0   1_556     S
V288     B454    10.0   1_565     S
Be289     Ce290    9.999   .     S
Be289     V292    10.0   .     S
Be289     Ce291    9.999   .     S
Ce290     Li293    10.0   .     S
Ce291     Li293    10.0   .     S
Li293     H614    10.0   .     S
Li293     Ce295    10.0   .     S
Li293     Ce296    10.0   .     S
Be294     Ce295    9.999   .     S
Be294     V297    10.0   .     S
Be294     Ce296    9.999   .     S
Ce295     B615    10.0   1_565     S
Ce296     B624    10.0   .     S
V297     B624    10.0   .     S
V297     B615    10.0   1_565     S
Ce298     Be299    9.999   .     S
Ce298     Li302    10.0   .     S
Ce298     B635    10.0   .     S
Be299     Ce300    9.999   .     S
Be299     V301    10.0   .     S
Ce300     Li302    10.0   .     S
Ce300     B641    10.0   .     S
V301     B641    10.0   .     S
V301     B635    10.0   .     S
Li302     H634    10.0   .     S
Li302     H559    10.0   .     S
Li302     Ce305    10.0   .     S
Li302     Ce303    10.0   .     S
Ce303     Be304    9.999   .     S
Ce303     B560    10.0   .     S
Be304     Ce305    9.999   .     S
Be304     V306    10.0   .     S
Ce305     B553    10.0   .     S
V306     B553    10.0   .     S
V306     B560    10.0   .     S
Ce307     Be309    9.999   .     S
Ce307     Li311    10.0   .     S
Ce307     B695    10.0   1_655     S
Ce308     Be309    9.999   .     S
Ce308     Li311    10.0   .     S
Ce308     B694    10.0   1_556     S
Be309     V310    10.0   .     S
V310     B695    10.0   1_655     S
V310     B694    10.0   1_556     S
Li311     H773    10.0   .     S
Li311     Ce312    10.0   .     S
Li311     Ce313    10.0   .     S
Li311     H693    10.0   .     S
Ce312     Be314    9.999   .     S
Ce312     B774    10.0   .     S
Ce313     Be314    9.999   .     S
Ce313     B775    10.0   .     S
Be314     V315    10.0   .     S
V315     B775    10.0   .     S
V315     B774    10.0   .     S
Ce316     Be317    9.999   .     S
Ce316     Li320    10.0   .     S
Ce316     B350    10.0   .     S
Be317     Ce318    9.999   .     S
Be317     V319    10.0   .     S
Ce318     Li320    10.0   .     S
Ce318     B347    10.0   .     S
V319     B347    10.0   .     S
V319     B350    10.0   .     S
Li320     H349    10.0   .     S
Li320     H534    10.0   .     S
Li320     Ce323    10.0   .     S
Li320     Ce321    10.0   .     S
Ce321     Be322    9.999   .     S
Ce321     B535    10.0   .     S
Be322     V324    10.0   .     S
Be322     Ce323    9.999   .     S
Ce323     B540    10.0   .     S
V324     B540    10.0   .     S
V324     B535    10.0   .     S
Be325     Ce327    9.999   .     S
Be325     V328    10.0   .     S
Be325     Ce326    9.999   .     S
Ce326     Li329    10.0   .     S
Ce326     B745    10.0   .     S
Ce327     Li329    10.0   .     S
Ce327     B752    10.0   .     S
V328     B752    10.0   .     S
V328     B745    10.0   .     S
Li329     H351    10.0   .     S
Li329     Ce332    10.0   .     S
Li329     Ce331    10.0   .     S
Li329     H743    10.0   .     S
Be330     Ce331    9.999   .     S
Be330     V333    10.0   .     S
Be330     Ce332    9.999   .     S
Ce331     B353    10.0   .     S
Ce332     B354    10.0   .     S
V333     B354    10.0   .     S
V333     B353    10.0   .     S
Ce334     Be335    9.999   .     S
Ce334     Li338    10.0   .     S
Ce334     B345    10.0   .     S
Be335     Ti139    10.0   1_556     S
Be335     Er141    10.0   1_556     S
Be335     Ti140    10.0   1_556     S
Be335     V337    10.0   .     S
Be335     Ce336    9.999   .     S
Ce336     Li338    10.0   .     S
Ce336     B348    10.0   .     S
V337     B345    10.0   .     S
V337     B348    10.0   .     S
Li338     H344    10.0   .     S
Li338     H384    10.0   .     S
Li338     Ce341    10.0   .     S
Li338     Ce340    10.0   .     S
Be339     Ti132    10.0   1_556     S
Be339     Er135    10.0   1_556     S
Be339     Ti134    10.0   1_556     S
Be339     Ce341    9.999   .     S
Be339     V342    10.0   .     S
Be339     Ce340    9.999   .     S
Ce340     B390    10.0   .     S
Ce341     B392    10.0   .     S
V342     B392    10.0   .     S
V342     B390    10.0   .     S
H343     B354    10.0   .     S
H343     B345    10.0   1_565     S
H344     B345    10.0   .     S
H344     B348    10.0   .     S
B345     V190    10.0   1_545     S
B345     Ce188    10.0   1_545     S
B345     H343    10.0   1_545     S
H346     B348    10.0   .     S
H346     B347    10.0   .     S
H346     Li407    10.0   .     S
B347     V411    10.0   .     S
B347     Ce410    10.0   .     S
B347     H349    10.0   .     S
B348     V411    10.0   .     S
B348     Ce408    10.0   .     S
H349     B350    10.0   .     S
B350     V363    10.0   1_545     S
B350     Ce362    10.0   1_545     S
B350     H352    10.0   1_545     S
H351     B354    10.0   .     S
H351     B353    10.0   .     S
H352     B353    10.0   .     S
H352     B350    10.0   1_565     S
H352     Li359    10.0   .     S
B353     V363    10.0   .     S
B353     Ce360    10.0   .     S
Be355     Ce357    9.999   .     S
Be355     V358    10.0   .     S
Be355     Ce356    9.999   .     S
Ce356     Li359    10.0   .     S
Ce356     B476    10.0   .     S
Ce357     Li359    10.0   .     S
Ce357     B481    10.0   .     S
V358     B476    10.0   .     S
V358     B481    10.0   .     S
Li359     H477    10.0   .     S
Li359     Ce362    10.0   .     S
Li359     Ce360    10.0   .     S
Ce360     Be361    9.999   .     S
Be361     Ce362    9.999   .     S
Be361     V363    10.0   .     S
Ce362     B350    10.0   1_565     S
V363     B350    10.0   1_565     S
Be364     Ce365    9.999   .     S
Be364     V367    10.0   .     S
Be364     Ce366    9.999   .     S
Be364     Ti807    10.0   .     S
Be364     Er808    10.0   .     S
Be364     Ti805    10.0   .     S
Ce365     Li368    10.0   .     S
Ce366     Li368    10.0   .     S
Li368     H708    10.0   .     S
Li368     Ce371    10.0   .     S
Li368     Ce370    10.0   .     S
Be369     Ce371    9.999   .     S
Be369     V372    10.0   .     S
Be369     Ce370    9.999   .     S
Be369     Ti795    10.0   .     S
Be369     Er796    10.0   .     S
Be369     Ti793    10.0   .     S
Ce370     B709    10.0   .     S
Ce371     B706    10.0   1_655     S
V372     B709    10.0   .     S
V372     B706    10.0   1_655     S
Be373     Ce374    9.999   .     S
Be373     V376    10.0   .     S
Be373     Ce375    9.999   .     S
Ce374     Li377    10.0   .     S
Ce375     Li377    10.0   .     S
Li377     H744    10.0   .     S
Li377     Ce378    10.0   .     S
Li377     Ce379    10.0   .     S
Ce378     Be380    9.999   .     S
Ce378     B746    10.0   1_565     S
Ce379     Be380    9.999   .     S
Ce379     B745    10.0   1_655     S
Be380     V381    10.0   .     S
V381     B746    10.0   1_565     S
V381     B745    10.0   1_655     S
H382     B393    10.0   .     S
H382     B391    10.0   .     S
H382     Li398    10.0   .     S
H383     B392    10.0   1_655     S
H383     B393    10.0   .     S
H384     B392    10.0   .     S
H384     B390    10.0   .     S
H385     B390    10.0   .     S
H385     B389    10.0   .     S
H385     Li659    10.0   .     S
H386     B391    10.0   .     S
H386     B387    10.0   1_655     S
H386     Li788    10.0   .     S
B387     V792    10.0   1_455     S
B387     Ce791    10.0   1_455     S
B387     H386    10.0   1_455     S
B387     H388    10.0   .     S
H388     B389    10.0   .     S
B389     V658    10.0   .     S
B389     Ce657    10.0   .     S
B390     V658    10.0   .     S
B390     Ce655    10.0   .     S
B391     V402    10.0   .     S
B391     Ce401    10.0   .     S
B391     V792    10.0   .     S
B391     Ce790    10.0   .     S
B392     V204    10.0   1_455     S
B392     Ce201    10.0   1_455     S
B392     H383    10.0   1_455     S
B393     V402    10.0   .     S
B393     Ce400    10.0   .     S
Be394     Ce396    9.999   .     S
Be394     V397    10.0   .     S
Be394     Ce395    9.999   .     S
Ce395     Li398    10.0   .     S
Ce395     B746    10.0   .     S
Ce396     Li398    10.0   .     S
Ce396     B753    10.0   .     S
V397     B753    10.0   .     S
V397     B746    10.0   .     S
Li398     Ce400    10.0   .     S
Li398     Ce401    10.0   .     S
Li398     H742    10.0   .     S
Be399     Ce400    9.999   .     S
Be399     V402    10.0   .     S
Be399     Ce401    9.999   .     S
Ce403     Be404    9.999   .     S
Ce403     Li407    10.0   .     S
Ce403     B461    10.0   .     S
Be404     Ce405    9.999   .     S
Be404     V406    10.0   .     S
Ce405     Li407    10.0   .     S
Ce405     B460    10.0   1_556     S
V406     B461    10.0   .     S
V406     B460    10.0   1_556     S
Li407     Ce410    10.0   .     S
Li407     Ce408    10.0   .     S
Li407     H456    10.0   .     S
Ce408     Be409    9.999   .     S
Be409     Ce410    9.999   .     S
Be409     V411    10.0   .     S
Be412     Ce414    9.999   .     S
Be412     V415    10.0   .     S
Be412     Ce413    9.999   .     S
Ce413     Li416    10.0   .     S
Ce413     B440    10.0   .     S
Ce414     Li416    10.0   .     S
Ce414     B435    10.0   .     S
V415     B440    10.0   .     S
V415     B435    10.0   .     S
Li416     H434    10.0   .     S
Li416     H457    10.0   .     S
Li416     Ce419    10.0   .     S
Li416     Ce417    10.0   .     S
Ce417     Be418    9.999   .     S
Ce417     B462    10.0   .     S
Be418     Ce419    9.999   .     S
Be418     V420    10.0   .     S
Ce419     B459    10.0   1_565     S
V420     B462    10.0   .     S
V420     B459    10.0   1_565     S
Be421     Ce423    9.999   .     S
Be421     V424    10.0   .     S
Be421     Ce422    9.999   .     S
Ce422     Li425    10.0   .     S
Ce422     B695    10.0   .     S
Ce423     Li425    10.0   .     S
Ce423     B701    10.0   .     S
V424     B701    10.0   .     S
V424     B695    10.0   .     S
Li425     H430    10.0   .     S
Li425     Ce427    10.0   .     S
Li425     Ce428    10.0   .     S
Li425     H691    10.0   .     S
Be426     Ce427    9.999   .     S
Be426     V429    10.0   .     S
Be426     Ce428    9.999   .     S
Ce427     B437    10.0   .     S
Ce428     B436    10.0   .     S
V429     B437    10.0   .     S
V429     B436    10.0   .     S
H430     B437    10.0   .     S
H430     B436    10.0   .     S
H431     B436    10.0   .     S
H431     B432    10.0   1_556     S
H431     Li488    10.0   .     S
B432     V487    10.0   1_554     S
B432     Ce486    10.0   1_554     S
B432     H431    10.0   1_554     S
B432     V445    10.0   .     S
B432     Ce444    10.0   .     S
B432     H433    10.0   .     S
H433     B435    10.0   .     S
H433     Li446    10.0   .     S
H434     B440    10.0   .     S
H434     B435    10.0   .     S
B435     V445    10.0   .     S
B435     Ce443    10.0   .     S
B436     V487    10.0   .     S
B436     Ce485    10.0   .     S
B437     H438    10.0   .     S
H438     B441    10.0   1_556     S
H439     B440    10.0   .     S
H439     B441    10.0   .     S
H439     Li668    10.0   .     S
B440     V667    10.0   .     S
B440     Ce665    10.0   .     S
B441     V195    10.0   1_554     S
B441     Ce192    10.0   1_554     S
B441     H438    10.0   1_554     S
B441     V667    10.0   .     S
B441     Ce666    10.0   .     S
Be442     Ce444    9.999   .     S
Be442     V445    10.0   .     S
Be442     Ce443    9.999   .     S
Ce443     Li446    10.0   .     S
Ce444     Li446    10.0   .     S
Li446     H587    10.0   .     S
Li446     Ce449    10.0   .     S
Li446     Ce448    10.0   .     S
Be447     Ce449    9.999   .     S
Be447     V450    10.0   .     S
Be447     Ce448    9.999   .     S
Ce448     B593    10.0   .     S
Ce449     B589    10.0   .     S
V450     B593    10.0   .     S
V450     B589    10.0   .     S
H451     B462    10.0   .     S
H451     B455    10.0   .     S
H452     B461    10.0   .     S
H452     B454    10.0   .     S
H452     Li650    10.0   .     S
H453     B455    10.0   1_556     S
H453     B454    10.0   1_565     S
B454     V649    10.0   .     S
B454     Ce647    10.0   .     S
B454     V288    10.0   1_545     S
B454     Ce285    10.0   1_545     S
B454     H453    10.0   1_545     S
B455     V288    10.0   1_554     S
B455     Ce286    10.0   1_554     S
B455     H453    10.0   1_554     S
H456     B461    10.0   .     S
H456     B460    10.0   1_556     S
H457     B462    10.0   .     S
H457     B459    10.0   1_565     S
H458     B460    10.0   .     S
H458     B459    10.0   .     S
H458     Li467    10.0   .     S
B459     V420    10.0   1_545     S
B459     Ce419    10.0   1_545     S
B459     H457    10.0   1_545     S
B459     V466    10.0   .     S
B459     Ce463    10.0   .     S
B460     V406    10.0   1_554     S
B460     Ce405    10.0   1_554     S
B460     H456    10.0   1_554     S
B460     V466    10.0   .     S
B460     Ce464    10.0   .     S
B461     V649    10.0   .     S
B461     Ce648    10.0   .     S
Ce463     Be465    9.999   .     S
Ce463     Li467    10.0   .     S
Ce464     Be465    9.999   .     S
Ce464     Li467    10.0   .     S
Be465     V466    10.0   .     S
Li467     H551    10.0   .     S
Li467     Ce469    10.0   .     S
Li467     Ce470    10.0   .     S
Be468     Ce469    9.999   .     S
Be468     V471    10.0   .     S
Be468     Ce470    9.999   .     S
Ce469     B552    10.0   .     S
Ce470     B561    10.0   .     S
V471     B561    10.0   .     S
V471     B552    10.0   .     S
H472     B474    10.0   .     S
H472     B482    10.0   .     S
H473     B483    10.0   .     S
H473     B474    10.0   .     S
H475     B483    10.0   .     S
H475     B476    10.0   .     S
B476     H477    10.0   .     S
H477     B481    10.0   .     S
H478     B479    10.0   .     S
H478     B482    10.0   .     S
H478     Li488    10.0   .     S
B479     V492    10.0   .     S
B479     Ce490    10.0   .     S
B479     V496    10.0   .     S
B479     Ce494    10.0   .     S
B479     H480    10.0   .     S
H480     B481    10.0   .     S
H480     Li497    10.0   .     S
B481     V496    10.0   .     S
B481     Ce493    10.0   .     S
B482     V492    10.0   .     S
B482     Ce491    10.0   .     S
Be484     Ce486    9.999   .     S
Be484     V487    10.0   .     S
Be484     Ce485    9.999   .     S
Ce485     Li488    10.0   .     S
Ce486     B432    10.0   1_556     S
Ce486     Li488    10.0   .     S
V487     B432    10.0   1_556     S
Li488     Ce490    10.0   .     S
Li488     Ce491    10.0   .     S
Be489     Ce490    9.999   .     S
Be489     V492    10.0   .     S
Be489     Ce491    9.999   .     S
Ce493     Be495    9.999   .     S
Ce493     Li497    10.0   .     S
Ce494     Be495    9.999   .     S
Ce494     Li497    10.0   .     S
Be495     V496    10.0   .     S
Li497     H577    10.0   .     S
Li497     Ce499    10.0   .     S
Li497     Ce498    10.0   .     S
Ce498     Be500    9.999   .     S
Ce498     B581    10.0   .     S
Ce499     Be500    9.999   .     S
Ce499     B579    10.0   .     S
Be500     V501    10.0   .     S
V501     B581    10.0   .     S
V501     B579    10.0   .     S
Ce502     Be504    9.999   .     S
Ce502     Li506    10.0   .     S
Ce502     B558    10.0   .     S
Ce503     Be504    9.999   .     S
Ce503     Li506    10.0   .     S
Ce503     B561    10.0   .     S
Be504     Ti97    10.0   1_545     S
Be504     Er100    10.0   1_545     S
Be504     Ti99    10.0   1_545     S
Be504     V505    10.0   .     S
V505     B561    10.0   .     S
V505     B558    10.0   .     S
Li506     H554    10.0   .     S
Li506     H529    10.0   .     S
Li506     Ce509    10.0   .     S
Li506     Ce507    10.0   .     S
Ce507     Be508    9.999   .     S
Ce507     B531    10.0   .     S
Be508     Ti103    10.0   1_545     S
Be508     Er105    10.0   1_545     S
Be508     Ti104    10.0   1_545     S
Be508     V510    10.0   .     S
Be508     Ce509    9.999   .     S
Ce509     B540    10.0   .     S
V510     B531    10.0   .     S
V510     B540    10.0   .     S
Be511     Ti147    10.0   1_554     S
Be511     Er148    10.0   1_554     S
Be511     Ti145    10.0   1_554     S
Be511     Ce512    9.999   .     S
Be511     V514    10.0   .     S
Be511     Ce513    9.999   .     S
Ce512     Li515    10.0   .     S
Ce512     B589    10.0   .     S
Ce513     Li515    10.0   .     S
Ce513     B586    10.0   .     S
V514     B589    10.0   .     S
V514     B586    10.0   .     S
Li515     H588    10.0   .     S
Li515     H550    10.0   .     S
Li515     Ce517    10.0   .     S
Li515     Ce516    10.0   .     S
Ce516     Be518    9.999   .     S
Ce516     B552    10.0   .     S
Ce517     Be518    9.999   .     S
Ce517     B553    10.0   .     S
Be518     Ti151    10.0   1_554     S
Be518     Er153    10.0   1_554     S
Be518     Ti150    10.0   1_554     S
Be518     V519    10.0   .     S
V519     B552    10.0   .     S
V519     B553    10.0   .     S
Ce520     Be522    9.999   .     S
Ce520     Li524    10.0   .     S
Ce520     B585    10.0   .     S
Ce521     Be522    9.999   .     S
Ce521     Li524    10.0   .     S
Ce521     B594    10.0   .     S
Be522     V523    10.0   .     S
Be522     Ti795    10.0   1_455     S
Be522     Er796    10.0   1_455     S
Be522     Ti794    10.0   1_455     S
V523     B594    10.0   .     S
V523     B585    10.0   .     S
Li524     H533    10.0   .     S
Li524     Ce526    10.0   .     S
Li524     Ce525    10.0   .     S
Li524     H583    10.0   .     S
Ce525     Be527    9.999   .     S
Ce525     B539    10.0   .     S
Ce526     Be527    9.999   .     S
Ce526     B532    10.0   .     S
Be527     V528    10.0   .     S
Be527     Ti799    10.0   1_455     S
Be527     Er801    10.0   1_455     S
Be527     Ti800    10.0   1_455     S
V528     B532    10.0   .     S
V528     B539    10.0   .     S
H529     B531    10.0   .     S
H529     B540    10.0   .     S
H530     B531    10.0   .     S
H530     B532    10.0   .     S
H530     Li758    10.0   .     S
B531     V762    10.0   .     S
B531     Ce759    10.0   .     S
B532     V762    10.0   .     S
B532     Ce760    10.0   .     S
B532     H533    10.0   .     S
H533     B539    10.0   .     S
H534     B540    10.0   .     S
H534     B535    10.0   .     S
B535     V544    10.0   .     S
B535     Ce543    10.0   .     S
B535     H536    10.0   .     S
H536     B537    10.0   .     S
H536     Li545    10.0   .     S
B537     V544    10.0   .     S
B537     Ce542    10.0   .     S
B537     H538    10.0   .     S
H538     B539    10.0   .     S
Be541     Ce543    9.999   .     S
Be541     V544    10.0   .     S
Be541     Ce542    9.999   .     S
Ce542     Li545    10.0   .     S
Ce543     Li545    10.0   .     S
Li545     H571    10.0   .     S
Li545     Ce547    10.0   .     S
Li545     Ce548    10.0   .     S
Be546     Ce547    9.999   .     S
Be546     V549    10.0   .     S
Be546     Ce548    9.999   .     S
Ce547     B581    10.0   .     S
Ce548     B582    10.0   .     S
V549     B582    10.0   .     S
V549     B581    10.0   .     S
H550     B552    10.0   .     S
H550     B553    10.0   .     S
H551     B561    10.0   .     S
H551     B552    10.0   .     S
B553     H559    10.0   .     S
H554     B561    10.0   .     S
H554     B558    10.0   .     S
H555     B558    10.0   .     S
H555     B557    10.0   .     S
H555     Li629    10.0   .     S
H556     B560    10.0   .     S
H556     B557    10.0   .     S
H556     Li566    10.0   .     S
B557     V633    10.0   .     S
B557     Ce630    10.0   .     S
B557     V565    10.0   .     S
B557     Ce563    10.0   .     S
B558     V633    10.0   .     S
B558     Ce632    10.0   .     S
H559     B560    10.0   .     S
B560     V565    10.0   .     S
B560     Ce564    10.0   .     S
Be562     Ce563    9.999   .     S
Be562     V565    10.0   .     S
Be562     Ce564    9.999   .     S
Be562     Ti812    10.0   .     S
Be562     Er813    10.0   .     S
Be562     Ti811    10.0   .     S
Ce563     Li566    10.0   .     S
Ce564     Li566    10.0   .     S
Li566     H573    10.0   .     S
Li566     Ce568    10.0   .     S
Li566     Ce569    10.0   .     S
Be567     Ce568    9.999   .     S
Be567     V570    10.0   .     S
Be567     Ce569    9.999   .     S
Be567     Ti807    10.0   .     S
Be567     Er808    10.0   .     S
Be567     Ti806    10.0   .     S
Ce568     B575    10.0   .     S
Ce569     B574    10.0   .     S
V570     B575    10.0   .     S
V570     B574    10.0   .     S
H571     B582    10.0   .     S
H571     B581    10.0   .     S
H572     B582    10.0   .     S
H572     B575    10.0   .     S
H572     Li767    10.0   .     S
H573     B575    10.0   .     S
H573     B574    10.0   .     S
B574     H576    10.0   .     S
B575     V766    10.0   .     S
B575     Ce763    10.0   .     S
H576     B580    10.0   .     S
H577     B581    10.0   .     S
H577     B579    10.0   .     S
H578     B579    10.0   .     S
H578     B580    10.0   .     S
H578     Li599    10.0   .     S
B579     V598    10.0   .     S
B579     Ce597    10.0   .     S
B580     V598    10.0   .     S
B580     Ce596    10.0   .     S
B582     V766    10.0   .     S
B582     Ce764    10.0   .     S
H583     B594    10.0   .     S
H583     B585    10.0   .     S
H584     B585    10.0   .     S
H584     B586    10.0   .     S
H584     Li686    10.0   .     S
B585     V685    10.0   .     S
B585     Ce682    10.0   .     S
B586     V685    10.0   .     S
B586     Ce683    10.0   .     S
B586     H588    10.0   .     S
H587     B593    10.0   .     S
H587     B589    10.0   .     S
H588     B589    10.0   .     S
H590     B594    10.0   .     S
H590     B592    10.0   .     S
H591     B592    10.0   .     S
H591     B593    10.0   .     S
H591     Li599    10.0   .     S
B592     V603    10.0   .     S
B592     Ce602    10.0   .     S
B593     V603    10.0   .     S
B593     Ce601    10.0   .     S
Be595     Ce596    9.999   .     S
Be595     V598    10.0   .     S
Be595     Ce597    9.999   .     S
Ce596     Li599    10.0   .     S
Ce597     Li599    10.0   .     S
Li599     Ce602    10.0   .     S
Li599     Ce601    10.0   .     S
Be600     Ce602    9.999   .     S
Be600     V603    10.0   .     S
Be600     Ce601    9.999   .     S
Be604     Ti128    10.0   1_655     S
Be604     Er130    10.0   1_655     S
Be604     Ti129    10.0   1_655     S
Be604     Ce606    9.999   .     S
Be604     V607    10.0   .     S
Be604     Ce605    9.999   .     S
Ce605     Li608    10.0   .     S
Ce605     B622    10.0   .     S
Ce606     Li608    10.0   .     S
Ce606     B621    10.0   .     S
V607     B622    10.0   .     S
V607     B621    10.0   .     S
Li608     H619    10.0   .     S
Li608     H642    10.0   .     S
Li608     Ce610    10.0   .     S
Li608     Ce611    10.0   .     S
Be609     Ti133    10.0   1_655     S
Be609     Er135    10.0   1_655     S
Be609     Ti134    10.0   1_655     S
Be609     Ce611    9.999   .     S
Be609     V612    10.0   .     S
Be609     Ce610    9.999   .     S
Ce610     B644    10.0   .     S
Ce611     B643    10.0   .     S
V612     B644    10.0   .     S
V612     B643    10.0   .     S
H613     B622    10.0   .     S
H613     B617    10.0   .     S
H613     Li737    10.0   .     S
H614     B624    10.0   .     S
H614     B615    10.0   1_565     S
B615     V297    10.0   1_545     S
B615     Ce295    10.0   1_545     S
B615     H614    10.0   1_545     S
B615     V628    10.0   .     S
B615     Ce627    10.0   .     S
B615     H616    10.0   .     S
H616     B617    10.0   .     S
H616     Li629    10.0   .     S
B617     V736    10.0   .     S
B617     Ce735    10.0   .     S
B617     V628    10.0   .     S
B617     Ce626    10.0   .     S
H618     B624    10.0   .     S
H618     B623    10.0   .     S
H619     B622    10.0   .     S
H619     B621    10.0   .     S
H620     B621    10.0   1_565     S
H620     B623    10.0   .     S
B621     V213    10.0   1_545     S
B621     Ce210    10.0   1_545     S
B621     H620    10.0   1_545     S
B622     V736    10.0   .     S
B622     Ce734    10.0   .     S
Be625     Ce627    9.999   .     S
Be625     V628    10.0   .     S
Be625     Ce626    9.999   .     S
Ce626     Li629    10.0   .     S
Ce627     Li629    10.0   .     S
Li629     Ce632    10.0   .     S
Li629     Ce630    10.0   .     S
Ce630     Be631    9.999   .     S
Be631     Ce632    9.999   .     S
Be631     V633    10.0   .     S
H634     B641    10.0   .     S
H634     B635    10.0   .     S
B635     V270    10.0   1_554     S
B635     Ce269    10.0   1_554     S
B635     H637    10.0   1_554     S
H636     B645    10.0   .     S
H636     B638    10.0   .     S
H636     Li650    10.0   .     S
H637     B638    10.0   .     S
H637     B635    10.0   1_556     S
B638     V654    10.0   .     S
B638     Ce652    10.0   .     S
H639     B645    10.0   .     S
H639     B644    10.0   1_556     S
H640     B643    10.0   .     S
H640     B641    10.0   .     S
H640     Li677    10.0   .     S
B641     V681    10.0   .     S
B641     Ce680    10.0   .     S
H642     B644    10.0   .     S
H642     B643    10.0   .     S
B643     V681    10.0   .     S
B643     Ce678    10.0   .     S
B644     V199    10.0   1_554     S
B644     Ce198    10.0   1_554     S
B644     H639    10.0   1_554     S
B645     V654    10.0   .     S
B645     Ce653    10.0   .     S
Be646     Ce648    9.999   .     S
Be646     V649    10.0   .     S
Be646     Ce647    9.999   .     S
Ce647     Li650    10.0   .     S
Ce648     Li650    10.0   .     S
Li650     Ce653    10.0   .     S
Li650     Ce652    10.0   .     S
Be651     Ce652    9.999   .     S
Be651     V654    10.0   .     S
Be651     Ce653    9.999   .     S
Ce655     Be656    9.999   .     S
Ce655     Li659    10.0   .     S
Be656     V658    10.0   .     S
Be656     Ce657    9.999   .     S
Ce657     Li659    10.0   .     S
Li659     H696    10.0   .     S
Li659     Ce662    10.0   .     S
Li659     Ce660    10.0   .     S
Ce660     Be661    9.999   .     S
Ce660     B701    10.0   .     S
Be661     Ce662    9.999   .     S
Be661     V663    10.0   .     S
Ce662     B700    10.0   1_556     S
V663     B701    10.0   .     S
V663     B700    10.0   1_556     S
Be664     Ti138    10.0   1_565     S
Be664     Er141    10.0   1_565     S
Be664     Ti140    10.0   1_565     S
Be664     Ce666    9.999   .     S
Be664     V667    10.0   .     S
Be664     Ce665    9.999   .     S
Ce665     Li668    10.0   .     S
Ce666     Li668    10.0   .     S
Li668     H712    10.0   .     S
Li668     Ce670    10.0   .     S
Li668     Ce671    10.0   .     S
Be669     Ti129    10.0   1_565     S
Be669     Er130    10.0   1_565     S
Be669     Ti127    10.0   1_565     S
Be669     Ce671    9.999   .     S
Be669     V672    10.0   .     S
Be669     Ce670    9.999   .     S
Ce670     B714    10.0   .     S
Ce671     B713    10.0   .     S
V672     B714    10.0   .     S
V672     B713    10.0   .     S
Ce673     Be674    9.999   .     S
Ce673     Li677    10.0   .     S
Ce673     B702    10.0   .     S
Be674     Ce675    9.999   .     S
Be674     V676    10.0   .     S
Be674     Ti794    10.0   .     S
Be674     Er796    10.0   .     S
Be674     Ti793    10.0   .     S
Ce675     Li677    10.0   .     S
Ce675     B699    10.0   1_655     S
V676     B702    10.0   .     S
V676     B699    10.0   1_655     S
Li677     Ce680    10.0   .     S
Li677     Ce678    10.0   .     S
Li677     H697    10.0   .     S
Ce678     Be679    9.999   .     S
Be679     Ce680    9.999   .     S
Be679     V681    10.0   .     S
Be679     Ti812    10.0   .     S
Be679     Er813    10.0   .     S
Be679     Ti810    10.0   .     S
Ce682     Be684    9.999   .     S
Ce682     Li686    10.0   .     S
Ce683     Be684    9.999   .     S
Ce683     Li686    10.0   .     S
Be684     V685    10.0   .     S
Li686     H698    10.0   .     S
Li686     Ce687    10.0   .     S
Li686     Ce688    10.0   .     S
Ce687     Be689    9.999   .     S
Ce687     B700    10.0   .     S
Ce688     Be689    9.999   .     S
Ce688     B699    10.0   .     S
Be689     V690    10.0   .     S
V690     B700    10.0   .     S
V690     B699    10.0   .     S
H691     B701    10.0   .     S
H691     B695    10.0   .     S
H692     B702    10.0   .     S
H692     B694    10.0   .     S
H692     Li719    10.0   .     S
H693     B695    10.0   1_655     S
H693     B694    10.0   1_556     S
B694     V718    10.0   .     S
B694     Ce716    10.0   .     S
B694     V310    10.0   1_554     S
B694     Ce308    10.0   1_554     S
B694     H693    10.0   1_554     S
B695     V310    10.0   1_455     S
B695     Ce307    10.0   1_455     S
B695     H693    10.0   1_455     S
H696     B701    10.0   .     S
H696     B700    10.0   1_556     S
H697     B702    10.0   .     S
H697     B699    10.0   1_655     S
H698     B700    10.0   .     S
H698     B699    10.0   .     S
B699     V676    10.0   1_455     S
B699     Ce675    10.0   1_455     S
B699     H697    10.0   1_455     S
B700     V663    10.0   1_554     S
B700     Ce662    10.0   1_554     S
B700     H696    10.0   1_554     S
B702     V718    10.0   .     S
B702     Ce717    10.0   .     S
H703     B704    10.0   .     S
H703     B714    10.0   1_655     S
B704     V723    10.0   .     S
B704     Ce722    10.0   .     S
B704     H707    10.0   .     S
H705     B711    10.0   .     S
H705     B706    10.0   .     S
B706     V372    10.0   1_455     S
B706     Ce371    10.0   1_455     S
B706     H708    10.0   1_455     S
H707     B709    10.0   .     S
H707     Li719    10.0   .     S
H708     B709    10.0   .     S
H708     B706    10.0   1_655     S
B709     V723    10.0   .     S
B709     Ce721    10.0   .     S
H710     B713    10.0   .     S
H710     B711    10.0   .     S
H710     Li728    10.0   .     S
B711     V727    10.0   .     S
B711     Ce726    10.0   .     S
H712     B714    10.0   .     S
H712     B713    10.0   .     S
B713     V727    10.0   .     S
B713     Ce724    10.0   .     S
B714     V208    10.0   1_455     S
B714     Ce207    10.0   1_455     S
B714     H703    10.0   1_455     S
Be715     Ce717    9.999   .     S
Be715     V718    10.0   .     S
Be715     Ce716    9.999   .     S
Ce716     Li719    10.0   .     S
Ce717     Li719    10.0   .     S
Li719     Ce722    10.0   .     S
Li719     Ce721    10.0   .     S
Be720     Ce722    9.999   .     S
Be720     V723    10.0   .     S
Be720     Ce721    9.999   .     S
Ce724     Be725    9.999   .     S
Ce724     Li728    10.0   .     S
Be725     Ce726    9.999   .     S
Be725     V727    10.0   .     S
Ce726     Li728    10.0   .     S
Li728     H747    10.0   .     S
Li728     Ce731    10.0   .     S
Li728     Ce729    10.0   .     S
Ce729     Be730    9.999   .     S
Ce729     B752    10.0   .     S
Be730     Ce731    9.999   .     S
Be730     V732    10.0   .     S
Ce731     B751    10.0   1_565     S
V732     B752    10.0   .     S
V732     B751    10.0   1_565     S
Be733     Ce735    9.999   .     S
Be733     V736    10.0   .     S
Be733     Ce734    9.999   .     S
Be733     Ti811    10.0   .     S
Be733     Er813    10.0   .     S
Be733     Ti810    10.0   .     S
Ce734     Li737    10.0   .     S
Ce735     Li737    10.0   .     S
Li737     H748    10.0   .     S
Li737     Ce740    10.0   .     S
Li737     Ce738    10.0   .     S
Ce738     Be739    9.999   .     S
Ce738     B753    10.0   .     S
Be739     Ce740    9.999   .     S
Be739     V741    10.0   .     S
Be739     Ti799    10.0   .     S
Be739     Er801    10.0   .     S
Be739     Ti798    10.0   .     S
Ce740     B750    10.0   1_655     S
V741     B753    10.0   .     S
V741     B750    10.0   1_655     S
H742     B753    10.0   .     S
H742     B746    10.0   .     S
H743     B752    10.0   .     S
H743     B745    10.0   .     S
H744     B746    10.0   1_565     S
H744     B745    10.0   1_655     S
B745     V381    10.0   1_455     S
B745     Ce379    10.0   1_455     S
B745     H744    10.0   1_455     S
B746     V381    10.0   1_545     S
B746     Ce378    10.0   1_545     S
B746     H744    10.0   1_545     S
H747     B752    10.0   .     S
H747     B751    10.0   1_565     S
H748     B753    10.0   .     S
H748     B750    10.0   1_655     S
H749     B751    10.0   .     S
H749     B750    10.0   .     S
H749     Li758    10.0   .     S
B750     V741    10.0   1_455     S
B750     Ce740    10.0   1_455     S
B750     H748    10.0   1_455     S
B750     V757    10.0   .     S
B750     Ce754    10.0   .     S
B751     V732    10.0   1_545     S
B751     Ce731    10.0   1_545     S
B751     H747    10.0   1_545     S
B751     V757    10.0   .     S
B751     Ce755    10.0   .     S
Ce754     Be756    9.999   .     S
Ce754     Li758    10.0   .     S
Ce755     Be756    9.999   .     S
Ce755     Li758    10.0   .     S
Be756     V757    10.0   .     S
Li758     Ce760    10.0   .     S
Li758     Ce759    10.0   .     S
Ce759     Be761    9.999   .     S
Ce760     Be761    9.999   .     S
Be761     V762    10.0   .     S
Ce763     Be765    9.999   .     S
Ce763     Li767    10.0   .     S
Ce764     Be765    9.999   .     S
Ce764     Li767    10.0   .     S
Be765     V766    10.0   .     S
Li767     H776    10.0   .     S
Li767     Ce769    10.0   .     S
Li767     Ce768    10.0   .     S
Ce768     Be770    9.999   .     S
Ce768     B780    10.0   .     S
Ce769     Be770    9.999   .     S
Ce769     B778    10.0   .     S
Be770     V771    10.0   .     S
V771     B780    10.0   .     S
V771     B778    10.0   .     S
H772     B775    10.0   .     S
H772     B779    10.0   .     S
H773     B775    10.0   .     S
H773     B774    10.0   .     S
B774     H781    10.0   .     S
H776     B780    10.0   .     S
H776     B778    10.0   .     S
H777     B779    10.0   .     S
H777     B778    10.0   .     S
H777     Li788    10.0   .     S
B778     V787    10.0   .     S
B778     Ce785    10.0   .     S
B779     V787    10.0   .     S
B779     Ce784    10.0   .     S
B780     H782    10.0   .     S
H781     B783    10.0   .     S
H782     B783    10.0   .     S
Ce784     Be786    9.999   .     S
Ce784     Li788    10.0   .     S
Ce785     Be786    9.999   .     S
Ce785     Li788    10.0   .     S
Be786     V787    10.0   .     S
Be786     Ti806    10.0   .     S
Be786     Er808    10.0   .     S
Be786     Ti805    10.0   .     S
Li788     Ce791    10.0   .     S
Li788     Ce790    10.0   .     S
Be789     Ce791    9.999   .     S
Be789     V792    10.0   .     S
Be789     Ce790    9.999   .     S
Be789     Ti800    10.0   .     S
Be789     Er801    10.0   .     S
Be789     Ti798    10.0   .     S
Ce791     B387    10.0   1_655     S
V792     B387    10.0   1_655     S
Ti793     He797    9.999   .     S
Ti794     Be522    10.0   1_655     S
Ti794     He797    9.999   .     S
Ti795     Be522    10.0   1_655     S
Ti795     He797    9.999   .     S
Er796     Be522    10.0   1_655     S
He797     S803    10.001   .     S
He797     S816    10.001   .     S
He797     S804    10.001   .     S
Ti798     He802    9.999   .     S
Ti799     Be527    10.0   1_655     S
Ti799     He802    9.999   .     S
Ti800     Be527    10.0   1_655     S
Ti800     He802    9.999   .     S
Er801     Be527    10.0   1_655     S
He802     S803    10.001   .     S
He802     S815    10.001   .     S
He802     S804    10.001   .     S
S803     He814    10.001   .     S
S804     He809    10.001   .     S
Ti805     He809    9.999   .     S
Ti806     He809    9.999   .     S
Ti807     He809    9.999   .     S
He809     S816    10.001   .     S
He809     S815    10.001   .     S
Ti810     He814    9.999   .     S
Ti811     He814    9.999   .     S
Ti812     He814    9.999   .     S
He814     S816    10.001   .     S
He814     S815    10.001   .     S
