data_moz
_audit_creation_date              2020-02-04
_audit_creation_method            'Pymatgen'
_symmetry_space_group_name_H-M    'P1'
_symmetry_Int_Tables_number       1
loop_
_symmetry_equiv_pos_as_xyz
  x,y,z
_cell_length_a                    124.6099
_cell_length_b                    124.6099
_cell_length_c                    124.6099
_cell_angle_alpha                 90.0
_cell_angle_beta                 90.0
_cell_angle_gamma                 90.0
loop_
_atom_site_label
_atom_site_type_symbol
_atom_site_fract_x
_atom_site_fract_y
_atom_site_fract_z
Li1     Li     0.4599   0.8893   0.64
B2     B     0.4599   0.8126   0.6638
He3     He     0.3471   0.8775   0.6487
Be4     Be     0.3973   0.9033   0.5917
Li5     Li     0.4599   0.1107   0.64
B6     B     0.4599   0.1874   0.6638
He7     He     0.3471   0.1225   0.6487
Be8     Be     0.3973   0.0967   0.5917
S9     S     0.3198   0.8762   0.7242
Ce10     Ce     0.3743   0.8299   0.7605
H11     H     0.4095   0.8652   0.6976
Ti12     Ti     0.3588   0.9033   0.7889
V13     V     0.4599   0.0401   0.8733
V14     V     0.4599   0.9599   0.8733
Er15     Er     0.3879   0.0401   0.8378
Er16     Er     0.3879   0.9599   0.8378
S17     S     0.3198   0.1238   0.7242
Ce18     Ce     0.3743   0.1701   0.7605
H19     H     0.4095   0.1348   0.6976
Ti20     Ti     0.3588   0.0967   0.7889
Li21     Li     0.8893   0.64   0.4599
B22     B     0.8126   0.6638   0.4599
He23     He     0.8775   0.6487   0.3471
Be24     Be     0.9033   0.5917   0.3973
Li25     Li     0.1107   0.64   0.4599
B26     B     0.1874   0.6638   0.4599
He27     He     0.1225   0.6487   0.3471
Be28     Be     0.0967   0.5917   0.3973
S29     S     0.8762   0.7242   0.3198
Ce30     Ce     0.8299   0.7605   0.3743
H31     H     0.8652   0.6976   0.4095
Ti32     Ti     0.9033   0.7889   0.3588
V33     V     0.0401   0.8733   0.4599
V34     V     0.9599   0.8733   0.4599
Er35     Er     0.0401   0.8378   0.3879
Er36     Er     0.9599   0.8378   0.3879
S37     S     0.1238   0.7242   0.3198
Ce38     Ce     0.1701   0.7605   0.3743
H39     H     0.1348   0.6976   0.4095
Ti40     Ti     0.0967   0.7889   0.3588
Li41     Li     0.64   0.4599   0.8893
B42     B     0.6638   0.4599   0.8126
He43     He     0.6487   0.3471   0.8775
Be44     Be     0.5917   0.3973   0.9033
Li45     Li     0.64   0.4599   0.1107
B46     B     0.6638   0.4599   0.1874
He47     He     0.6487   0.3471   0.1225
Be48     Be     0.5917   0.3973   0.0967
S49     S     0.7242   0.3198   0.8762
Ce50     Ce     0.7605   0.3743   0.8299
H51     H     0.6976   0.4095   0.8652
Ti52     Ti     0.7889   0.3588   0.9033
V53     V     0.8733   0.4599   0.0401
V54     V     0.8733   0.4599   0.9599
Er55     Er     0.8378   0.3879   0.0401
Er56     Er     0.8378   0.3879   0.9599
S57     S     0.7242   0.3198   0.1238
Ce58     Ce     0.7605   0.3743   0.1701
H59     H     0.6976   0.4095   0.1348
Ti60     Ti     0.7889   0.3588   0.0967
Li61     Li     0.4599   0.8893   0.36
B62     B     0.4599   0.8126   0.3362
He63     He     0.3471   0.8775   0.3513
Be64     Be     0.3973   0.9033   0.4083
Li65     Li     0.4599   0.1107   0.36
B66     B     0.4599   0.1874   0.3362
He67     He     0.3471   0.1225   0.3513
Be68     Be     0.3973   0.0967   0.4083
S69     S     0.3198   0.8762   0.2758
Ce70     Ce     0.3743   0.8299   0.2395
H71     H     0.4095   0.8652   0.3024
Ti72     Ti     0.3588   0.9033   0.2111
Er73     Er     0.3879   0.0401   0.1622
Er74     Er     0.3879   0.9599   0.1622
V75     V     0.4599   0.0401   0.1267
V76     V     0.4599   0.9599   0.1267
S77     S     0.3198   0.1238   0.2758
Ce78     Ce     0.3743   0.1701   0.2395
H79     H     0.4095   0.1348   0.3024
Ti80     Ti     0.3588   0.0967   0.2111
Li81     Li     0.36   0.4599   0.8893
B82     B     0.3362   0.4599   0.8126
He83     He     0.3513   0.3471   0.8775
Be84     Be     0.4083   0.3973   0.9033
Li85     Li     0.36   0.4599   0.1107
B86     B     0.3362   0.4599   0.1874
He87     He     0.3513   0.3471   0.1225
Be88     Be     0.4083   0.3973   0.0967
S89     S     0.2758   0.3198   0.8762
Ce90     Ce     0.2395   0.3743   0.8299
H91     H     0.3024   0.4095   0.8652
Ti92     Ti     0.2111   0.3588   0.9033
Er93     Er     0.1622   0.3879   0.0401
Er94     Er     0.1622   0.3879   0.9599
V95     V     0.1267   0.4599   0.0401
V96     V     0.1267   0.4599   0.9599
S97     S     0.2758   0.3198   0.1238
Ce98     Ce     0.2395   0.3743   0.1701
H99     H     0.3024   0.4095   0.1348
Ti100     Ti     0.2111   0.3588   0.0967
Li101     Li     0.8893   0.36   0.4599
B102     B     0.8126   0.3362   0.4599
He103     He     0.8775   0.3513   0.3471
Be104     Be     0.9033   0.4083   0.3973
Li105     Li     0.1107   0.36   0.4599
B106     B     0.1874   0.3362   0.4599
He107     He     0.1225   0.3513   0.3471
Be108     Be     0.0967   0.4083   0.3973
S109     S     0.8762   0.2758   0.3198
Ce110     Ce     0.8299   0.2395   0.3743
H111     H     0.8652   0.3024   0.4095
Ti112     Ti     0.9033   0.2111   0.3588
Er113     Er     0.0401   0.1622   0.3879
Er114     Er     0.9599   0.1622   0.3879
V115     V     0.0401   0.1267   0.4599
V116     V     0.9599   0.1267   0.4599
S117     S     0.1238   0.2758   0.3198
Ce118     Ce     0.1701   0.2395   0.3743
H119     H     0.1348   0.3024   0.4095
Ti120     Ti     0.0967   0.2111   0.3588
Li121     Li     0.0401   0.3893   0.14
B122     B     0.0401   0.3126   0.1638
He123     He     0.1529   0.3775   0.1487
Be124     Be     0.1027   0.4033   0.0917
Li125     Li     0.0401   0.6107   0.14
B126     B     0.0401   0.6874   0.1638
He127     He     0.1529   0.6225   0.1487
Be128     Be     0.1027   0.5967   0.0917
S129     S     0.1802   0.6238   0.2242
Ce130     Ce     0.1257   0.6701   0.2605
H131     H     0.0905   0.6348   0.1976
Ti132     Ti     0.1412   0.5967   0.2889
Er133     Er     0.1121   0.4599   0.3378
Er134     Er     0.1121   0.5401   0.3378
V135     V     0.0401   0.4599   0.3733
V136     V     0.0401   0.5401   0.3733
S137     S     0.1802   0.3762   0.2242
Ce138     Ce     0.1257   0.3299   0.2605
H139     H     0.0905   0.3651   0.1976
Ti140     Ti     0.1412   0.4033   0.2889
Li141     Li     0.3893   0.14   0.0401
B142     B     0.3126   0.1638   0.0401
He143     He     0.3775   0.1487   0.1529
Be144     Be     0.4033   0.0917   0.1027
Li145     Li     0.6107   0.14   0.0401
B146     B     0.6874   0.1638   0.0401
He147     He     0.6225   0.1487   0.1529
Be148     Be     0.5967   0.0917   0.1027
S149     S     0.6238   0.2242   0.1802
Ce150     Ce     0.6701   0.2605   0.1257
H151     H     0.6348   0.1976   0.0905
Ti152     Ti     0.5967   0.2889   0.1412
Er153     Er     0.4599   0.3378   0.1121
Er154     Er     0.5401   0.3378   0.1121
V155     V     0.4599   0.3733   0.0401
V156     V     0.5401   0.3733   0.0401
S157     S     0.3762   0.2242   0.1802
Ce158     Ce     0.3299   0.2605   0.1257
H159     H     0.3651   0.1976   0.0905
Ti160     Ti     0.4033   0.2889   0.1412
Li161     Li     0.14   0.0401   0.3893
B162     B     0.1638   0.0401   0.3126
He163     He     0.1487   0.1529   0.3775
Be164     Be     0.0917   0.1027   0.4033
Li165     Li     0.14   0.0401   0.6107
B166     B     0.1638   0.0401   0.6874
He167     He     0.1487   0.1529   0.6225
Be168     Be     0.0917   0.1027   0.5967
S169     S     0.2242   0.1802   0.6238
Ce170     Ce     0.2605   0.1257   0.6701
H171     H     0.1976   0.0905   0.6348
Ti172     Ti     0.2889   0.1412   0.5967
Er173     Er     0.3378   0.1121   0.4599
Er174     Er     0.3378   0.1121   0.5401
V175     V     0.3733   0.0401   0.4599
V176     V     0.3733   0.0401   0.5401
S177     S     0.2242   0.1802   0.3762
Ce178     Ce     0.2605   0.1257   0.3299
H179     H     0.1976   0.0905   0.3651
Ti180     Ti     0.2889   0.1412   0.4033
Li181     Li     0.0401   0.3893   0.86
B182     B     0.0401   0.3126   0.8362
He183     He     0.1529   0.3775   0.8513
Be184     Be     0.1027   0.4033   0.9083
Li185     Li     0.0401   0.6107   0.86
B186     B     0.0401   0.6874   0.8362
He187     He     0.1529   0.6225   0.8513
Be188     Be     0.1027   0.5967   0.9083
S189     S     0.1802   0.6238   0.7758
Ce190     Ce     0.1257   0.6701   0.7395
H191     H     0.0905   0.6348   0.8024
Ti192     Ti     0.1412   0.5967   0.7111
V193     V     0.0401   0.4599   0.6267
V194     V     0.0401   0.5401   0.6267
Er195     Er     0.1121   0.4599   0.6622
Er196     Er     0.1121   0.5401   0.6622
S197     S     0.1802   0.3762   0.7758
Ce198     Ce     0.1257   0.3299   0.7395
H199     H     0.0905   0.3651   0.8024
Ti200     Ti     0.1412   0.4033   0.7111
Li201     Li     0.3893   0.86   0.0401
B202     B     0.3126   0.8362   0.0401
He203     He     0.3775   0.8513   0.1529
Be204     Be     0.4033   0.9083   0.1027
Li205     Li     0.6107   0.86   0.0401
B206     B     0.6874   0.8362   0.0401
He207     He     0.6225   0.8513   0.1529
Be208     Be     0.5967   0.9083   0.1027
S209     S     0.6238   0.7758   0.1802
Ce210     Ce     0.6701   0.7395   0.1257
H211     H     0.6348   0.8024   0.0905
Ti212     Ti     0.5967   0.7111   0.1412
V213     V     0.4599   0.6267   0.0401
V214     V     0.5401   0.6267   0.0401
Er215     Er     0.4599   0.6622   0.1121
Er216     Er     0.5401   0.6622   0.1121
S217     S     0.3762   0.7758   0.1802
Ce218     Ce     0.3299   0.7395   0.1257
H219     H     0.3651   0.8024   0.0905
Ti220     Ti     0.4033   0.7111   0.1412
Li221     Li     0.86   0.0401   0.3893
B222     B     0.8362   0.0401   0.3126
He223     He     0.8513   0.1529   0.3775
Be224     Be     0.9083   0.1027   0.4033
Li225     Li     0.86   0.0401   0.6107
B226     B     0.8362   0.0401   0.6874
He227     He     0.8513   0.1529   0.6225
Be228     Be     0.9083   0.1027   0.5967
S229     S     0.7758   0.1802   0.6238
Ce230     Ce     0.7395   0.1257   0.6701
H231     H     0.8024   0.0905   0.6348
Ti232     Ti     0.7111   0.1412   0.5967
V233     V     0.6267   0.0401   0.4599
V234     V     0.6267   0.0401   0.5401
Er235     Er     0.6622   0.1121   0.4599
Er236     Er     0.6622   0.1121   0.5401
S237     S     0.7758   0.1802   0.3762
Ce238     Ce     0.7395   0.1257   0.3299
H239     H     0.8024   0.0905   0.3651
Ti240     Ti     0.7111   0.1412   0.4033
Li241     Li     0.5401   0.8893   0.36
B242     B     0.5401   0.8126   0.3362
He243     He     0.6529   0.8775   0.3513
Be244     Be     0.6027   0.9033   0.4083
Li245     Li     0.5401   0.1107   0.36
B246     B     0.5401   0.1874   0.3362
He247     He     0.6529   0.1225   0.3513
Be248     Be     0.6027   0.0967   0.4083
S249     S     0.6802   0.8762   0.2758
Ce250     Ce     0.6257   0.8299   0.2395
H251     H     0.5905   0.8652   0.3024
Ti252     Ti     0.6412   0.9033   0.2111
Er253     Er     0.6121   0.0401   0.1622
Er254     Er     0.6121   0.9599   0.1622
V255     V     0.5401   0.0401   0.1267
V256     V     0.5401   0.9599   0.1267
S257     S     0.6802   0.1238   0.2758
Ce258     Ce     0.6257   0.1701   0.2395
H259     H     0.5905   0.1348   0.3024
Ti260     Ti     0.6412   0.0967   0.2111
Li261     Li     0.8893   0.36   0.5401
B262     B     0.8126   0.3362   0.5401
He263     He     0.8775   0.3513   0.6529
Be264     Be     0.9033   0.4083   0.6027
Li265     Li     0.1107   0.36   0.5401
B266     B     0.1874   0.3362   0.5401
He267     He     0.1225   0.3513   0.6529
Be268     Be     0.0967   0.4083   0.6027
S269     S     0.8762   0.2758   0.6802
Ce270     Ce     0.8299   0.2395   0.6257
H271     H     0.8652   0.3024   0.5905
Ti272     Ti     0.9033   0.2111   0.6412
Er273     Er     0.0401   0.1622   0.6121
Er274     Er     0.9599   0.1622   0.6121
V275     V     0.0401   0.1267   0.5401
V276     V     0.9599   0.1267   0.5401
S277     S     0.1238   0.2758   0.6802
Ce278     Ce     0.1701   0.2395   0.6257
H279     H     0.1348   0.3024   0.5905
Ti280     Ti     0.0967   0.2111   0.6412
Li281     Li     0.36   0.5401   0.8893
B282     B     0.3362   0.5401   0.8126
He283     He     0.3513   0.6529   0.8775
Be284     Be     0.4083   0.6027   0.9033
Li285     Li     0.36   0.5401   0.1107
B286     B     0.3362   0.5401   0.1874
He287     He     0.3513   0.6529   0.1225
Be288     Be     0.4083   0.6027   0.0967
S289     S     0.2758   0.6802   0.8762
Ce290     Ce     0.2395   0.6257   0.8299
H291     H     0.3024   0.5905   0.8652
Ti292     Ti     0.2111   0.6412   0.9033
Er293     Er     0.1622   0.6121   0.0401
Er294     Er     0.1622   0.6121   0.9599
V295     V     0.1267   0.5401   0.0401
V296     V     0.1267   0.5401   0.9599
S297     S     0.2758   0.6802   0.1238
Ce298     Ce     0.2395   0.6257   0.1701
H299     H     0.3024   0.5905   0.1348
Ti300     Ti     0.2111   0.6412   0.0967
Li301     Li     0.3893   0.86   0.9599
B302     B     0.3126   0.8362   0.9599
He303     He     0.3775   0.8513   0.8471
Be304     Be     0.4033   0.9083   0.8973
Li305     Li     0.6107   0.86   0.9599
B306     B     0.6874   0.8362   0.9599
He307     He     0.6225   0.8513   0.8471
Be308     Be     0.5967   0.9083   0.8973
S309     S     0.6238   0.7758   0.8198
Ce310     Ce     0.6701   0.7395   0.8743
H311     H     0.6348   0.8024   0.9095
Ti312     Ti     0.5967   0.7111   0.8588
V313     V     0.4599   0.6267   0.9599
V314     V     0.5401   0.6267   0.9599
Er315     Er     0.4599   0.6622   0.8879
Er316     Er     0.5401   0.6622   0.8879
S317     S     0.3762   0.7758   0.8198
Ce318     Ce     0.3299   0.7395   0.8743
H319     H     0.3651   0.8024   0.9095
Ti320     Ti     0.4033   0.7111   0.8588
Li321     Li     0.3893   0.14   0.9599
B322     B     0.3126   0.1638   0.9599
He323     He     0.3775   0.1487   0.8471
Be324     Be     0.4033   0.0917   0.8973
Li325     Li     0.6107   0.14   0.9599
B326     B     0.6874   0.1638   0.9599
He327     He     0.6225   0.1487   0.8471
Be328     Be     0.5967   0.0917   0.8973
S329     S     0.6238   0.2242   0.8198
Ce330     Ce     0.6701   0.2605   0.8743
H331     H     0.6348   0.1976   0.9095
Ti332     Ti     0.5967   0.2889   0.8588
Er333     Er     0.4599   0.3378   0.8879
Er334     Er     0.5401   0.3378   0.8879
V335     V     0.4599   0.3733   0.9599
V336     V     0.5401   0.3733   0.9599
S337     S     0.3762   0.2242   0.8198
Ce338     Ce     0.3299   0.2605   0.8743
H339     H     0.3651   0.1976   0.9095
Ti340     Ti     0.4033   0.2889   0.8588
Li341     Li     0.5401   0.8893   0.64
B342     B     0.5401   0.8126   0.6638
He343     He     0.6529   0.8775   0.6487
Be344     Be     0.6027   0.9033   0.5917
Li345     Li     0.5401   0.1107   0.64
B346     B     0.5401   0.1874   0.6638
He347     He     0.6529   0.1225   0.6487
Be348     Be     0.6027   0.0967   0.5917
S349     S     0.6802   0.8762   0.7242
Ce350     Ce     0.6257   0.8299   0.7605
H351     H     0.5905   0.8652   0.6976
Ti352     Ti     0.6412   0.9033   0.7889
V353     V     0.5401   0.0401   0.8733
V354     V     0.5401   0.9599   0.8733
Er355     Er     0.6121   0.0401   0.8378
Er356     Er     0.6121   0.9599   0.8378
S357     S     0.6802   0.1238   0.7242
Ce358     Ce     0.6257   0.1701   0.7605
H359     H     0.5905   0.1348   0.6976
Ti360     Ti     0.6412   0.0967   0.7889
Li361     Li     0.86   0.9599   0.3893
B362     B     0.8362   0.9599   0.3126
He363     He     0.8513   0.8471   0.3775
Be364     Be     0.9083   0.8973   0.4033
Li365     Li     0.86   0.9599   0.6107
B366     B     0.8362   0.9599   0.6874
He367     He     0.8513   0.8471   0.6225
Be368     Be     0.9083   0.8973   0.5967
S369     S     0.7758   0.8198   0.6238
Ce370     Ce     0.7395   0.8743   0.6701
H371     H     0.8024   0.9095   0.6348
Ti372     Ti     0.7111   0.8588   0.5967
V373     V     0.6267   0.9599   0.4599
V374     V     0.6267   0.9599   0.5401
Er375     Er     0.6622   0.8879   0.4599
Er376     Er     0.6622   0.8879   0.5401
S377     S     0.7758   0.8198   0.3762
Ce378     Ce     0.7395   0.8743   0.3299
H379     H     0.8024   0.9095   0.3651
Ti380     Ti     0.7111   0.8588   0.4033
Li381     Li     0.14   0.9599   0.3893
B382     B     0.1638   0.9599   0.3126
He383     He     0.1487   0.8471   0.3775
Be384     Be     0.0917   0.8973   0.4033
Li385     Li     0.14   0.9599   0.6107
B386     B     0.1638   0.9599   0.6874
He387     He     0.1487   0.8471   0.6225
Be388     Be     0.0917   0.8973   0.5967
S389     S     0.2242   0.8198   0.6238
Ce390     Ce     0.2605   0.8743   0.6701
H391     H     0.1976   0.9095   0.6348
Ti392     Ti     0.2889   0.8588   0.5967
Er393     Er     0.3378   0.8879   0.4599
Er394     Er     0.3378   0.8879   0.5401
V395     V     0.3733   0.9599   0.4599
V396     V     0.3733   0.9599   0.5401
S397     S     0.2242   0.8198   0.3762
Ce398     Ce     0.2605   0.8743   0.3299
H399     H     0.1976   0.9095   0.3651
Ti400     Ti     0.2889   0.8588   0.4033
Li401     Li     0.8893   0.64   0.5401
B402     B     0.8126   0.6638   0.5401
He403     He     0.8775   0.6487   0.6529
Be404     Be     0.9033   0.5917   0.6027
Li405     Li     0.1107   0.64   0.5401
B406     B     0.1874   0.6638   0.5401
He407     He     0.1225   0.6487   0.6529
Be408     Be     0.0967   0.5917   0.6027
S409     S     0.8762   0.7242   0.6802
Ce410     Ce     0.8299   0.7605   0.6257
H411     H     0.8652   0.6976   0.5905
Ti412     Ti     0.9033   0.7889   0.6412
V413     V     0.0401   0.8733   0.5401
V414     V     0.9599   0.8733   0.5401
Er415     Er     0.0401   0.8378   0.6121
Er416     Er     0.9599   0.8378   0.6121
S417     S     0.1238   0.7242   0.6802
Ce418     Ce     0.1701   0.7605   0.6257
H419     H     0.1348   0.6976   0.5905
Ti420     Ti     0.0967   0.7889   0.6412
Li421     Li     0.9599   0.3893   0.86
B422     B     0.9599   0.3126   0.8362
He423     He     0.8471   0.3775   0.8513
Be424     Be     0.8973   0.4033   0.9083
Li425     Li     0.9599   0.6107   0.86
B426     B     0.9599   0.6874   0.8362
He427     He     0.8471   0.6225   0.8513
Be428     Be     0.8973   0.5967   0.9083
S429     S     0.8198   0.6238   0.7758
Ce430     Ce     0.8743   0.6701   0.7395
H431     H     0.9095   0.6348   0.8024
Ti432     Ti     0.8588   0.5967   0.7111
V433     V     0.9599   0.4599   0.6267
V434     V     0.9599   0.5401   0.6267
Er435     Er     0.8879   0.4599   0.6622
Er436     Er     0.8879   0.5401   0.6622
S437     S     0.8198   0.3762   0.7758
Ce438     Ce     0.8743   0.3299   0.7395
H439     H     0.9095   0.3651   0.8024
Ti440     Ti     0.8588   0.4033   0.7111
Li441     Li     0.9599   0.3893   0.14
B442     B     0.9599   0.3126   0.1638
He443     He     0.8471   0.3775   0.1487
Be444     Be     0.8973   0.4033   0.0917
Li445     Li     0.9599   0.6107   0.14
B446     B     0.9599   0.6874   0.1638
He447     He     0.8471   0.6225   0.1487
Be448     Be     0.8973   0.5967   0.0917
S449     S     0.8198   0.6238   0.2242
Ce450     Ce     0.8743   0.6701   0.2605
H451     H     0.9095   0.6348   0.1976
Ti452     Ti     0.8588   0.5967   0.2889
Er453     Er     0.8879   0.4599   0.3378
Er454     Er     0.8879   0.5401   0.3378
V455     V     0.9599   0.4599   0.3733
V456     V     0.9599   0.5401   0.3733
S457     S     0.8198   0.3762   0.2242
Ce458     Ce     0.8743   0.3299   0.2605
H459     H     0.9095   0.3651   0.1976
Ti460     Ti     0.8588   0.4033   0.2889
Li461     Li     0.64   0.5401   0.8893
B462     B     0.6638   0.5401   0.8126
He463     He     0.6487   0.6529   0.8775
Be464     Be     0.5917   0.6027   0.9033
Li465     Li     0.64   0.5401   0.1107
B466     B     0.6638   0.5401   0.1874
He467     He     0.6487   0.6529   0.1225
Be468     Be     0.5917   0.6027   0.0967
S469     S     0.7242   0.6802   0.8762
Ce470     Ce     0.7605   0.6257   0.8299
H471     H     0.6976   0.5905   0.8652
Ti472     Ti     0.7889   0.6412   0.9033
V473     V     0.8733   0.5401   0.0401
V474     V     0.8733   0.5401   0.9599
Er475     Er     0.8378   0.6121   0.0401
Er476     Er     0.8378   0.6121   0.9599
S477     S     0.7242   0.6802   0.1238
Ce478     Ce     0.7605   0.6257   0.1701
H479     H     0.6976   0.5905   0.1348
Ti480     Ti     0.7889   0.6412   0.0967
loop_
_geom_bond_atom_site_label_1
_geom_bond_atom_site_label_2
_geom_bond_distance
_geom_bond_site_symmetry_2
_ccdc_geom_bond_type
Li1     H11    10.0   .     S
Li1     B2    9.999   .     S
Li1     Be4    9.999   .     S
Li1     Li341    10.001   .     S
B2     H11    9.999   .     S
B2     B342    10.001   .     S
He3     H11    10.0   .     S
He3     S9    10.0   .     S
He3     Be4    10.0   .     S
He3     Ti392    10.001   .     S
Be4     V396    10.0   .     S
Be4     Er394    10.001   .     S
Li5     H19    10.0   .     S
Li5     B6    9.999   .     S
Li5     Be8    9.999   .     S
Li5     Li345    10.001   .     S
B6     H19    9.999   .     S
B6     B346    10.001   .     S
He7     H19    10.0   .     S
He7     S17    10.0   .     S
He7     Be8    10.0   .     S
He7     Ti172    10.001   .     S
Be8     V176    10.0   .     S
Be8     Er174    10.001   .     S
S9     Ce390    10.0   .     S
S9     Ce10    9.999   .     S
S9     Ti12    10.0   .     S
Ce10     Ti12    9.999   .     S
Ce10     H11    10.0   .     S
Ce10     S317    10.0   .     S
Ti12     He303    10.001   .     S
Ti12     Er16    10.0   .     S
V13     V14    9.999   1_545     S
V13     Er15    10.0   .     S
V13     Be324    10.0   .     S
V13     V353    10.001   .     S
V14     V13    9.999   1_565     S
V14     Er16    10.0   .     S
V14     Be304    10.0   .     S
V14     V354    10.001   .     S
Er15     Er16    9.999   1_545     S
Er15     Ti20    10.0   .     S
Er15     Be324    10.001   .     S
Er16     Er15    9.999   1_565     S
Er16     Be304    10.001   .     S
S17     Ce170    10.0   .     S
S17     Ce18    9.999   .     S
S17     Ti20    10.0   .     S
Ce18     Ti20    9.999   .     S
Ce18     H19    10.0   .     S
Ce18     S337    10.0   .     S
Ti20     He323    10.001   .     S
Li21     H31    10.0   .     S
Li21     B22    9.999   .     S
Li21     Be24    9.999   .     S
Li21     Li401    10.001   .     S
B22     H31    9.999   .     S
B22     B402    10.001   .     S
He23     H31    10.0   .     S
He23     S29    10.0   .     S
He23     Be24    10.0   .     S
He23     Ti452    10.001   .     S
Be24     V456    10.0   .     S
Be24     Er454    10.001   .     S
Li25     H39    10.0   .     S
Li25     B26    9.999   .     S
Li25     Be28    9.999   .     S
Li25     Li405    10.001   .     S
B26     H39    9.999   .     S
B26     B406    10.001   .     S
He27     H39    10.0   .     S
He27     S37    10.0   .     S
He27     Be28    10.0   .     S
He27     Ti132    10.001   .     S
Be28     V136    10.0   .     S
Be28     Er134    10.001   .     S
S29     Ce450    10.0   .     S
S29     Ce30    9.999   .     S
S29     Ti32    10.0   .     S
Ce30     Ti32    9.999   .     S
Ce30     H31    10.0   .     S
Ce30     S377    10.0   .     S
Ti32     He363    10.001   .     S
Ti32     Er36    10.0   .     S
V33     V34    9.999   1_455     S
V33     Er35    10.0   .     S
V33     Be384    10.0   .     S
V33     V413    10.001   .     S
V34     V33    9.999   1_655     S
V34     Er36    10.0   .     S
V34     Be364    10.0   .     S
V34     V414    10.001   .     S
Er35     Er36    9.999   1_455     S
Er35     Ti40    10.0   .     S
Er35     Be384    10.001   .     S
Er36     Er35    9.999   1_655     S
Er36     Be364    10.001   .     S
S37     Ce130    10.0   .     S
S37     Ce38    9.999   .     S
S37     Ti40    10.0   .     S
Ce38     Ti40    9.999   .     S
Ce38     H39    10.0   .     S
Ce38     S397    10.0   .     S
Ti40     He383    10.001   .     S
Li41     H51    10.0   .     S
Li41     B42    9.999   .     S
Li41     Be44    9.999   .     S
Li41     Li461    10.001   .     S
B42     H51    9.999   .     S
B42     B462    10.001   .     S
He43     H51    10.0   .     S
He43     S49    10.0   .     S
He43     Be44    10.0   .     S
He43     Ti332    10.001   .     S
Be44     V336    10.0   .     S
Be44     Er334    10.001   .     S
Li45     H59    10.0   .     S
Li45     B46    9.999   .     S
Li45     Be48    9.999   .     S
Li45     Li465    10.001   .     S
B46     H59    9.999   .     S
B46     B466    10.001   .     S
He47     H59    10.0   .     S
He47     S57    10.0   .     S
He47     Be48    10.0   .     S
He47     Ti152    10.001   .     S
Be48     V156    10.0   .     S
Be48     Er154    10.001   .     S
S49     Ce330    10.0   .     S
S49     Ce50    9.999   .     S
S49     Ti52    10.0   .     S
Ce50     Ti52    9.999   .     S
Ce50     H51    10.0   .     S
Ce50     S437    10.0   .     S
Ti52     He423    10.001   .     S
Ti52     Er56    10.0   .     S
V53     V54    9.999   1_554     S
V53     Er55    10.0   .     S
V53     Be444    10.0   .     S
V53     V473    10.001   .     S
V54     V53    9.999   1_556     S
V54     Er56    10.0   .     S
V54     Be424    10.0   .     S
V54     V474    10.001   .     S
Er55     Er56    9.999   1_554     S
Er55     Ti60    10.0   .     S
Er55     Be444    10.001   .     S
Er56     Er55    9.999   1_556     S
Er56     Be424    10.001   .     S
S57     Ce150    10.0   .     S
S57     Ce58    9.999   .     S
S57     Ti60    10.0   .     S
Ce58     Ti60    9.999   .     S
Ce58     H59    10.0   .     S
Ce58     S457    10.0   .     S
Ti60     He443    10.001   .     S
Li61     H71    10.0   .     S
Li61     B62    9.999   .     S
Li61     Be64    9.999   .     S
Li61     Li241    10.001   .     S
B62     H71    9.999   .     S
B62     B242    10.001   .     S
He63     H71    10.0   .     S
He63     S69    10.0   .     S
He63     Be64    10.0   .     S
He63     Ti400    10.001   .     S
Be64     V395    10.0   .     S
Be64     Er393    10.001   .     S
Li65     H79    10.0   .     S
Li65     B66    9.999   .     S
Li65     Be68    9.999   .     S
Li65     Li245    10.001   .     S
B66     H79    9.999   .     S
B66     B246    10.001   .     S
He67     H79    10.0   .     S
He67     S77    10.0   .     S
He67     Be68    10.0   .     S
He67     Ti180    10.001   .     S
Be68     V175    10.0   .     S
Be68     Er173    10.001   .     S
S69     Ce398    10.0   .     S
S69     Ce70    9.999   .     S
S69     Ti72    10.0   .     S
Ce70     Ti72    9.999   .     S
Ce70     H71    10.0   .     S
Ce70     S217    10.0   .     S
Ti72     He203    10.001   .     S
Ti72     Er74    10.0   .     S
Er73     Er74    9.999   1_545     S
Er73     Ti80    10.0   .     S
Er73     V75    10.0   .     S
Er73     Be144    10.001   .     S
Er74     Er73    9.999   1_565     S
Er74     V76    10.0   .     S
Er74     Be204    10.001   .     S
V75     V76    9.999   1_545     S
V75     Be144    10.0   .     S
V75     V255    10.001   .     S
V76     V75    9.999   1_565     S
V76     Be204    10.0   .     S
V76     V256    10.001   .     S
S77     Ce178    10.0   .     S
S77     Ce78    9.999   .     S
S77     Ti80    10.0   .     S
Ce78     Ti80    9.999   .     S
Ce78     H79    10.0   .     S
Ce78     S157    10.0   .     S
Ti80     He143    10.001   .     S
Li81     H91    10.0   .     S
Li81     B82    9.999   .     S
Li81     Be84    9.999   .     S
Li81     Li281    10.001   .     S
B82     H91    9.999   .     S
B82     B282    10.001   .     S
He83     H91    10.0   .     S
He83     S89    10.0   .     S
He83     Be84    10.0   .     S
He83     Ti340    10.001   .     S
Be84     V335    10.0   .     S
Be84     Er333    10.001   .     S
Li85     H99    10.0   .     S
Li85     B86    9.999   .     S
Li85     Be88    9.999   .     S
Li85     Li285    10.001   .     S
B86     H99    9.999   .     S
B86     B286    10.001   .     S
He87     H99    10.0   .     S
He87     S97    10.0   .     S
He87     Be88    10.0   .     S
He87     Ti160    10.001   .     S
Be88     V155    10.0   .     S
Be88     Er153    10.001   .     S
S89     Ce338    10.0   .     S
S89     Ce90    9.999   .     S
S89     Ti92    10.0   .     S
Ce90     Ti92    9.999   .     S
Ce90     H91    10.0   .     S
Ce90     S197    10.0   .     S
Ti92     He183    10.001   .     S
Ti92     Er94    10.0   .     S
Er93     Er94    9.999   1_554     S
Er93     Ti100    10.0   .     S
Er93     V95    10.0   .     S
Er93     Be124    10.001   .     S
Er94     Er93    9.999   1_556     S
Er94     V96    10.0   .     S
Er94     Be184    10.001   .     S
V95     V96    9.999   1_554     S
V95     Be124    10.0   .     S
V95     V295    10.001   .     S
V96     V95    9.999   1_556     S
V96     Be184    10.0   .     S
V96     V296    10.001   .     S
S97     Ce158    10.0   .     S
S97     Ce98    9.999   .     S
S97     Ti100    10.0   .     S
Ce98     Ti100    9.999   .     S
Ce98     H99    10.0   .     S
Ce98     S137    10.0   .     S
Ti100     He123    10.001   .     S
Li101     H111    10.0   .     S
Li101     B102    9.999   .     S
Li101     Be104    9.999   .     S
Li101     Li261    10.001   .     S
B102     H111    9.999   .     S
B102     B262    10.001   .     S
He103     H111    10.0   .     S
He103     S109    10.0   .     S
He103     Be104    10.0   .     S
He103     Ti460    10.001   .     S
Be104     V455    10.0   .     S
Be104     Er453    10.001   .     S
Li105     H119    10.0   .     S
Li105     B106    9.999   .     S
Li105     Be108    9.999   .     S
Li105     Li265    10.001   .     S
B106     H119    9.999   .     S
B106     B266    10.001   .     S
He107     H119    10.0   .     S
He107     S117    10.0   .     S
He107     Be108    10.0   .     S
He107     Ti140    10.001   .     S
Be108     V135    10.0   .     S
Be108     Er133    10.001   .     S
S109     Ce458    10.0   .     S
S109     Ce110    9.999   .     S
S109     Ti112    10.0   .     S
Ce110     Ti112    9.999   .     S
Ce110     H111    10.0   .     S
Ce110     S237    10.0   .     S
Ti112     He223    10.001   .     S
Ti112     Er114    10.0   .     S
Er113     Er114    9.999   1_455     S
Er113     Ti120    10.0   .     S
Er113     V115    10.0   .     S
Er113     Be164    10.001   .     S
Er114     Er113    9.999   1_655     S
Er114     V116    10.0   .     S
Er114     Be224    10.001   .     S
V115     V116    9.999   1_455     S
V115     Be164    10.0   .     S
V115     V275    10.001   .     S
V116     V115    9.999   1_655     S
V116     Be224    10.0   .     S
V116     V276    10.001   .     S
S117     Ce138    10.0   .     S
S117     Ce118    9.999   .     S
S117     Ti120    10.0   .     S
Ce118     Ti120    9.999   .     S
Ce118     H119    10.0   .     S
Ce118     S177    10.0   .     S
Ti120     He163    10.001   .     S
Li121     H139    10.0   .     S
Li121     B122    9.999   .     S
Li121     Be124    9.999   .     S
Li121     Li441    10.001   1_455     S
B122     H139    9.999   .     S
B122     B442    10.001   1_455     S
He123     H139    10.0   .     S
He123     S137    10.0   .     S
He123     Be124    10.0   .     S
Li125     H131    10.0   .     S
Li125     B126    9.999   .     S
Li125     Be128    9.999   .     S
Li125     Li445    10.001   1_455     S
B126     H131    9.999   .     S
B126     B446    10.001   1_455     S
He127     H131    10.0   .     S
He127     S129    10.0   .     S
He127     Be128    10.0   .     S
He127     Ti300    10.001   .     S
Be128     V295    10.0   .     S
Be128     Er293    10.001   .     S
S129     Ce298    10.0   .     S
S129     Ce130    9.999   .     S
S129     Ti132    10.0   .     S
Ce130     Ti132    9.999   .     S
Ce130     H131    10.0   .     S
Ti132     Er134    10.0   .     S
Er133     Er134    9.999   .     S
Er133     Ti140    10.0   .     S
Er133     V135    10.0   .     S
Er134     V136    10.0   .     S
V135     V136    9.999   .     S
V135     V455    10.001   1_455     S
V136     V456    10.001   1_455     S
S137     Ce138    9.999   .     S
S137     Ti140    10.0   .     S
Ce138     Ti140    9.999   .     S
Ce138     H139    10.0   .     S
Li141     H159    10.0   .     S
Li141     B142    9.999   .     S
Li141     Be144    9.999   .     S
Li141     Li321    10.001   1_554     S
B142     H159    9.999   .     S
B142     B322    10.001   1_554     S
He143     H159    10.0   .     S
He143     S157    10.0   .     S
He143     Be144    10.0   .     S
Li145     H151    10.0   .     S
Li145     B146    9.999   .     S
Li145     Be148    9.999   .     S
Li145     Li325    10.001   1_554     S
B146     H151    9.999   .     S
B146     B326    10.001   1_554     S
He147     H151    10.0   .     S
He147     S149    10.0   .     S
He147     Be148    10.0   .     S
He147     Ti260    10.001   .     S
Be148     V255    10.0   .     S
Be148     Er253    10.001   .     S
S149     Ce258    10.0   .     S
S149     Ce150    9.999   .     S
S149     Ti152    10.0   .     S
Ce150     Ti152    9.999   .     S
Ce150     H151    10.0   .     S
Ti152     Er154    10.0   .     S
Er153     Er154    9.999   .     S
Er153     Ti160    10.0   .     S
Er153     V155    10.0   .     S
Er154     V156    10.0   .     S
V155     V156    9.999   .     S
V155     V335    10.001   1_554     S
V156     V336    10.001   1_554     S
S157     Ce158    9.999   .     S
S157     Ti160    10.0   .     S
Ce158     Ti160    9.999   .     S
Ce158     H159    10.0   .     S
Li161     H179    10.0   .     S
Li161     B162    9.999   .     S
Li161     Be164    9.999   .     S
Li161     Li381    10.001   1_545     S
B162     H179    9.999   .     S
B162     B382    10.001   1_545     S
He163     H179    10.0   .     S
He163     S177    10.0   .     S
He163     Be164    10.0   .     S
Li165     H171    10.0   .     S
Li165     B166    9.999   .     S
Li165     Be168    9.999   .     S
Li165     Li385    10.001   1_545     S
B166     H171    9.999   .     S
B166     B386    10.001   1_545     S
He167     H171    10.0   .     S
He167     S169    10.0   .     S
He167     Be168    10.0   .     S
He167     Ti280    10.001   .     S
Be168     V275    10.0   .     S
Be168     Er273    10.001   .     S
S169     Ce278    10.0   .     S
S169     Ce170    9.999   .     S
S169     Ti172    10.0   .     S
Ce170     Ti172    9.999   .     S
Ce170     H171    10.0   .     S
Ti172     Er174    10.0   .     S
Er173     Er174    9.999   .     S
Er173     Ti180    10.0   .     S
Er173     V175    10.0   .     S
Er174     V176    10.0   .     S
V175     V176    9.999   .     S
V175     V395    10.001   1_545     S
V176     V396    10.001   1_545     S
S177     Ce178    9.999   .     S
S177     Ti180    10.0   .     S
Ce178     Ti180    9.999   .     S
Ce178     H179    10.0   .     S
Li181     H199    10.0   .     S
Li181     B182    9.999   .     S
Li181     Be184    9.999   .     S
Li181     Li421    10.001   1_455     S
B182     H199    9.999   .     S
B182     B422    10.001   1_455     S
He183     H199    10.0   .     S
He183     S197    10.0   .     S
He183     Be184    10.0   .     S
Li185     H191    10.0   .     S
Li185     B186    9.999   .     S
Li185     Be188    9.999   .     S
Li185     Li425    10.001   1_455     S
B186     H191    9.999   .     S
B186     B426    10.001   1_455     S
He187     H191    10.0   .     S
He187     S189    10.0   .     S
He187     Be188    10.0   .     S
He187     Ti292    10.001   .     S
Be188     V296    10.0   .     S
Be188     Er294    10.001   .     S
S189     Ce290    10.0   .     S
S189     Ce190    9.999   .     S
S189     Ti192    10.0   .     S
Ce190     Ti192    9.999   .     S
Ce190     H191    10.0   .     S
Ce190     S417    10.0   .     S
Ti192     He407    10.001   .     S
Ti192     Er196    10.0   .     S
V193     V194    9.999   .     S
V193     Er195    10.0   .     S
V193     Be268    10.0   .     S
V193     V433    10.001   1_455     S
V194     Er196    10.0   .     S
V194     Be408    10.0   .     S
V194     V434    10.001   1_455     S
Er195     Er196    9.999   .     S
Er195     Ti200    10.0   .     S
Er195     Be268    10.001   .     S
Er196     Be408    10.001   .     S
S197     Ce198    9.999   .     S
S197     Ti200    10.0   .     S
Ce198     Ti200    9.999   .     S
Ce198     H199    10.0   .     S
Ce198     S277    10.0   .     S
Ti200     He267    10.001   .     S
Li201     H219    10.0   .     S
Li201     B202    9.999   .     S
Li201     Be204    9.999   .     S
Li201     Li301    10.001   1_554     S
B202     H219    9.999   .     S
B202     B302    10.001   1_554     S
He203     H219    10.0   .     S
He203     S217    10.0   .     S
He203     Be204    10.0   .     S
Li205     H211    10.0   .     S
Li205     B206    9.999   .     S
Li205     Be208    9.999   .     S
Li205     Li305    10.001   1_554     S
B206     H211    9.999   .     S
B206     B306    10.001   1_554     S
He207     H211    10.0   .     S
He207     S209    10.0   .     S
He207     Be208    10.0   .     S
He207     Ti252    10.001   .     S
Be208     V256    10.0   .     S
Be208     Er254    10.001   .     S
S209     Ce250    10.0   .     S
S209     Ce210    9.999   .     S
S209     Ti212    10.0   .     S
Ce210     Ti212    9.999   .     S
Ce210     H211    10.0   .     S
Ce210     S477    10.0   .     S
Ti212     He467    10.001   .     S
Ti212     Er216    10.0   .     S
V213     V214    9.999   .     S
V213     Er215    10.0   .     S
V213     Be288    10.0   .     S
V213     V313    10.001   1_554     S
V214     Er216    10.0   .     S
V214     Be468    10.0   .     S
V214     V314    10.001   1_554     S
Er215     Er216    9.999   .     S
Er215     Ti220    10.0   .     S
Er215     Be288    10.001   .     S
Er216     Be468    10.001   .     S
S217     Ce218    9.999   .     S
S217     Ti220    10.0   .     S
Ce218     Ti220    9.999   .     S
Ce218     H219    10.0   .     S
Ce218     S297    10.0   .     S
Ti220     He287    10.001   .     S
Li221     H239    10.0   .     S
Li221     B222    9.999   .     S
Li221     Be224    9.999   .     S
Li221     Li361    10.001   1_545     S
B222     H239    9.999   .     S
B222     B362    10.001   1_545     S
He223     H239    10.0   .     S
He223     S237    10.0   .     S
He223     Be224    10.0   .     S
Li225     H231    10.0   .     S
Li225     B226    9.999   .     S
Li225     Be228    9.999   .     S
Li225     Li365    10.001   1_545     S
B226     H231    9.999   .     S
B226     B366    10.001   1_545     S
He227     H231    10.0   .     S
He227     S229    10.0   .     S
He227     Be228    10.0   .     S
He227     Ti272    10.001   .     S
Be228     V276    10.0   .     S
Be228     Er274    10.001   .     S
S229     Ce270    10.0   .     S
S229     Ce230    9.999   .     S
S229     Ti232    10.0   .     S
Ce230     Ti232    9.999   .     S
Ce230     H231    10.0   .     S
Ce230     S357    10.0   .     S
Ti232     He347    10.001   .     S
Ti232     Er236    10.0   .     S
V233     V234    9.999   .     S
V233     Er235    10.0   .     S
V233     Be248    10.0   .     S
V233     V373    10.001   1_545     S
V234     Er236    10.0   .     S
V234     Be348    10.0   .     S
V234     V374    10.001   1_545     S
Er235     Er236    9.999   .     S
Er235     Ti240    10.0   .     S
Er235     Be248    10.001   .     S
Er236     Be348    10.001   .     S
S237     Ce238    9.999   .     S
S237     Ti240    10.0   .     S
Ce238     Ti240    9.999   .     S
Ce238     H239    10.0   .     S
Ce238     S257    10.0   .     S
Ti240     He247    10.001   .     S
Li241     H251    10.0   .     S
Li241     B242    9.999   .     S
Li241     Be244    9.999   .     S
B242     H251    9.999   .     S
He243     H251    10.0   .     S
He243     S249    10.0   .     S
He243     Be244    10.0   .     S
He243     Ti380    10.001   .     S
Be244     V373    10.0   .     S
Be244     Er375    10.001   .     S
Li245     H259    10.0   .     S
Li245     B246    9.999   .     S
Li245     Be248    9.999   .     S
B246     H259    9.999   .     S
He247     H259    10.0   .     S
He247     S257    10.0   .     S
He247     Be248    10.0   .     S
S249     Ce378    10.0   .     S
S249     Ce250    9.999   .     S
S249     Ti252    10.0   .     S
Ce250     Ti252    9.999   .     S
Ce250     H251    10.0   .     S
Ti252     Er254    10.0   .     S
Er253     Er254    9.999   1_545     S
Er253     Ti260    10.0   .     S
Er253     V255    10.0   .     S
Er254     Er253    9.999   1_565     S
Er254     V256    10.0   .     S
V255     V256    9.999   1_545     S
V256     V255    9.999   1_565     S
S257     Ce258    9.999   .     S
S257     Ti260    10.0   .     S
Ce258     Ti260    9.999   .     S
Ce258     H259    10.0   .     S
Li261     H271    10.0   .     S
Li261     B262    9.999   .     S
Li261     Be264    9.999   .     S
B262     H271    9.999   .     S
He263     H271    10.0   .     S
He263     S269    10.0   .     S
He263     Be264    10.0   .     S
He263     Ti440    10.001   .     S
Be264     V433    10.0   .     S
Be264     Er435    10.001   .     S
Li265     H279    10.0   .     S
Li265     B266    9.999   .     S
Li265     Be268    9.999   .     S
B266     H279    9.999   .     S
He267     H279    10.0   .     S
He267     S277    10.0   .     S
He267     Be268    10.0   .     S
S269     Ce438    10.0   .     S
S269     Ce270    9.999   .     S
S269     Ti272    10.0   .     S
Ce270     Ti272    9.999   .     S
Ce270     H271    10.0   .     S
Ti272     Er274    10.0   .     S
Er273     Er274    9.999   1_455     S
Er273     Ti280    10.0   .     S
Er273     V275    10.0   .     S
Er274     Er273    9.999   1_655     S
Er274     V276    10.0   .     S
V275     V276    9.999   1_455     S
V276     V275    9.999   1_655     S
S277     Ce278    9.999   .     S
S277     Ti280    10.0   .     S
Ce278     Ti280    9.999   .     S
Ce278     H279    10.0   .     S
Li281     H291    10.0   .     S
Li281     B282    9.999   .     S
Li281     Be284    9.999   .     S
B282     H291    9.999   .     S
He283     H291    10.0   .     S
He283     S289    10.0   .     S
He283     Be284    10.0   .     S
He283     Ti320    10.001   .     S
Be284     V313    10.0   .     S
Be284     Er315    10.001   .     S
Li285     H299    10.0   .     S
Li285     B286    9.999   .     S
Li285     Be288    9.999   .     S
B286     H299    9.999   .     S
He287     H299    10.0   .     S
He287     S297    10.0   .     S
He287     Be288    10.0   .     S
S289     Ce318    10.0   .     S
S289     Ce290    9.999   .     S
S289     Ti292    10.0   .     S
Ce290     Ti292    9.999   .     S
Ce290     H291    10.0   .     S
Ti292     Er294    10.0   .     S
Er293     Er294    9.999   1_554     S
Er293     Ti300    10.0   .     S
Er293     V295    10.0   .     S
Er294     Er293    9.999   1_556     S
Er294     V296    10.0   .     S
V295     V296    9.999   1_554     S
V296     V295    9.999   1_556     S
S297     Ce298    9.999   .     S
S297     Ti300    10.0   .     S
Ce298     Ti300    9.999   .     S
Ce298     H299    10.0   .     S
Li301     H319    10.0   .     S
Li301     B302    9.999   .     S
Li301     Be304    9.999   .     S
Li301     Li201    10.001   1_556     S
B302     H319    9.999   .     S
B302     B202    10.001   1_556     S
He303     H319    10.0   .     S
He303     S317    10.0   .     S
He303     Be304    10.0   .     S
Li305     H311    10.0   .     S
Li305     B306    9.999   .     S
Li305     Be308    9.999   .     S
Li305     Li205    10.001   1_556     S
B306     H311    9.999   .     S
B306     B206    10.001   1_556     S
He307     H311    10.0   .     S
He307     S309    10.0   .     S
He307     Be308    10.0   .     S
He307     Ti352    10.001   .     S
Be308     V354    10.0   .     S
Be308     Er356    10.001   .     S
S309     Ce350    10.0   .     S
S309     Ce310    9.999   .     S
S309     Ti312    10.0   .     S
Ce310     Ti312    9.999   .     S
Ce310     H311    10.0   .     S
Ce310     S469    10.0   .     S
Ti312     He463    10.001   .     S
Ti312     Er316    10.0   .     S
V313     V314    9.999   .     S
V313     Er315    10.0   .     S
V313     V213    10.001   1_556     S
V314     Er316    10.0   .     S
V314     Be464    10.0   .     S
V314     V214    10.001   1_556     S
Er315     Er316    9.999   .     S
Er315     Ti320    10.0   .     S
Er316     Be464    10.001   .     S
S317     Ce318    9.999   .     S
S317     Ti320    10.0   .     S
Ce318     Ti320    9.999   .     S
Ce318     H319    10.0   .     S
Li321     H339    10.0   .     S
Li321     B322    9.999   .     S
Li321     Be324    9.999   .     S
Li321     Li141    10.001   1_556     S
B322     H339    9.999   .     S
B322     B142    10.001   1_556     S
He323     H339    10.0   .     S
He323     S337    10.0   .     S
He323     Be324    10.0   .     S
Li325     H331    10.0   .     S
Li325     B326    9.999   .     S
Li325     Be328    9.999   .     S
Li325     Li145    10.001   1_556     S
B326     H331    9.999   .     S
B326     B146    10.001   1_556     S
He327     H331    10.0   .     S
He327     S329    10.0   .     S
He327     Be328    10.0   .     S
He327     Ti360    10.001   .     S
Be328     V353    10.0   .     S
Be328     Er355    10.001   .     S
S329     Ce358    10.0   .     S
S329     Ce330    9.999   .     S
S329     Ti332    10.0   .     S
Ce330     Ti332    9.999   .     S
Ce330     H331    10.0   .     S
Ti332     Er334    10.0   .     S
Er333     Er334    9.999   .     S
Er333     Ti340    10.0   .     S
Er333     V335    10.0   .     S
Er334     V336    10.0   .     S
V335     V336    9.999   .     S
V335     V155    10.001   1_556     S
V336     V156    10.001   1_556     S
S337     Ce338    9.999   .     S
S337     Ti340    10.0   .     S
Ce338     Ti340    9.999   .     S
Ce338     H339    10.0   .     S
Li341     H351    10.0   .     S
Li341     B342    9.999   .     S
Li341     Be344    9.999   .     S
B342     H351    9.999   .     S
He343     H351    10.0   .     S
He343     S349    10.0   .     S
He343     Be344    10.0   .     S
He343     Ti372    10.001   .     S
Be344     V374    10.0   .     S
Be344     Er376    10.001   .     S
Li345     H359    10.0   .     S
Li345     B346    9.999   .     S
Li345     Be348    9.999   .     S
B346     H359    9.999   .     S
He347     H359    10.0   .     S
He347     S357    10.0   .     S
He347     Be348    10.0   .     S
S349     Ce370    10.0   .     S
S349     Ce350    9.999   .     S
S349     Ti352    10.0   .     S
Ce350     Ti352    9.999   .     S
Ce350     H351    10.0   .     S
Ti352     Er356    10.0   .     S
V353     V354    9.999   1_545     S
V353     Er355    10.0   .     S
V354     V353    9.999   1_565     S
V354     Er356    10.0   .     S
Er355     Er356    9.999   1_545     S
Er355     Ti360    10.0   .     S
Er356     Er355    9.999   1_565     S
S357     Ce358    9.999   .     S
S357     Ti360    10.0   .     S
Ce358     Ti360    9.999   .     S
Ce358     H359    10.0   .     S
Li361     H379    10.0   .     S
Li361     B362    9.999   .     S
Li361     Be364    9.999   .     S
Li361     Li221    10.001   1_565     S
B362     H379    9.999   .     S
B362     B222    10.001   1_565     S
He363     H379    10.0   .     S
He363     S377    10.0   .     S
He363     Be364    10.0   .     S
Li365     H371    10.0   .     S
Li365     B366    9.999   .     S
Li365     Be368    9.999   .     S
Li365     Li225    10.001   1_565     S
B366     H371    9.999   .     S
B366     B226    10.001   1_565     S
He367     H371    10.0   .     S
He367     S369    10.0   .     S
He367     Be368    10.0   .     S
He367     Ti412    10.001   .     S
Be368     V414    10.0   .     S
Be368     Er416    10.001   .     S
S369     Ce410    10.0   .     S
S369     Ce370    9.999   .     S
S369     Ti372    10.0   .     S
Ce370     Ti372    9.999   .     S
Ce370     H371    10.0   .     S
Ti372     Er376    10.0   .     S
V373     V374    9.999   .     S
V373     Er375    10.0   .     S
V373     V233    10.001   1_565     S
V374     Er376    10.0   .     S
V374     V234    10.001   1_565     S
Er375     Er376    9.999   .     S
Er375     Ti380    10.0   .     S
S377     Ce378    9.999   .     S
S377     Ti380    10.0   .     S
Ce378     Ti380    9.999   .     S
Ce378     H379    10.0   .     S
Li381     H399    10.0   .     S
Li381     B382    9.999   .     S
Li381     Be384    9.999   .     S
Li381     Li161    10.001   1_565     S
B382     H399    9.999   .     S
B382     B162    10.001   1_565     S
He383     H399    10.0   .     S
He383     S397    10.0   .     S
He383     Be384    10.0   .     S
Li385     H391    10.0   .     S
Li385     B386    9.999   .     S
Li385     Be388    9.999   .     S
Li385     Li165    10.001   1_565     S
B386     H391    9.999   .     S
B386     B166    10.001   1_565     S
He387     H391    10.0   .     S
He387     S389    10.0   .     S
He387     Be388    10.0   .     S
He387     Ti420    10.001   .     S
Be388     V413    10.0   .     S
Be388     Er415    10.001   .     S
S389     Ce418    10.0   .     S
S389     Ce390    9.999   .     S
S389     Ti392    10.0   .     S
Ce390     Ti392    9.999   .     S
Ce390     H391    10.0   .     S
Ti392     Er394    10.0   .     S
Er393     Er394    9.999   .     S
Er393     Ti400    10.0   .     S
Er393     V395    10.0   .     S
Er394     V396    10.0   .     S
V395     V396    9.999   .     S
V395     V175    10.001   1_565     S
V396     V176    10.001   1_565     S
S397     Ce398    9.999   .     S
S397     Ti400    10.0   .     S
Ce398     Ti400    9.999   .     S
Ce398     H399    10.0   .     S
Li401     H411    10.0   .     S
Li401     B402    9.999   .     S
Li401     Be404    9.999   .     S
B402     H411    9.999   .     S
He403     H411    10.0   .     S
He403     S409    10.0   .     S
He403     Be404    10.0   .     S
He403     Ti432    10.001   .     S
Be404     V434    10.0   .     S
Be404     Er436    10.001   .     S
Li405     H419    10.0   .     S
Li405     B406    9.999   .     S
Li405     Be408    9.999   .     S
B406     H419    9.999   .     S
He407     H419    10.0   .     S
He407     S417    10.0   .     S
He407     Be408    10.0   .     S
S409     Ce430    10.0   .     S
S409     Ce410    9.999   .     S
S409     Ti412    10.0   .     S
Ce410     Ti412    9.999   .     S
Ce410     H411    10.0   .     S
Ti412     Er416    10.0   .     S
V413     V414    9.999   1_455     S
V413     Er415    10.0   .     S
V414     V413    9.999   1_655     S
V414     Er416    10.0   .     S
Er415     Er416    9.999   1_455     S
Er415     Ti420    10.0   .     S
Er416     Er415    9.999   1_655     S
S417     Ce418    9.999   .     S
S417     Ti420    10.0   .     S
Ce418     Ti420    9.999   .     S
Ce418     H419    10.0   .     S
Li421     H439    10.0   .     S
Li421     B422    9.999   .     S
Li421     Be424    9.999   .     S
Li421     Li181    10.001   1_655     S
B422     H439    9.999   .     S
B422     B182    10.001   1_655     S
He423     H439    10.0   .     S
He423     S437    10.0   .     S
He423     Be424    10.0   .     S
Li425     H431    10.0   .     S
Li425     B426    9.999   .     S
Li425     Be428    9.999   .     S
Li425     Li185    10.001   1_655     S
B426     H431    9.999   .     S
B426     B186    10.001   1_655     S
He427     H431    10.0   .     S
He427     S429    10.0   .     S
He427     Be428    10.0   .     S
He427     Ti472    10.001   .     S
Be428     V474    10.0   .     S
Be428     Er476    10.001   .     S
S429     Ce470    10.0   .     S
S429     Ce430    9.999   .     S
S429     Ti432    10.0   .     S
Ce430     Ti432    9.999   .     S
Ce430     H431    10.0   .     S
Ti432     Er436    10.0   .     S
V433     V434    9.999   .     S
V433     Er435    10.0   .     S
V433     V193    10.001   1_655     S
V434     Er436    10.0   .     S
V434     V194    10.001   1_655     S
Er435     Er436    9.999   .     S
Er435     Ti440    10.0   .     S
S437     Ce438    9.999   .     S
S437     Ti440    10.0   .     S
Ce438     Ti440    9.999   .     S
Ce438     H439    10.0   .     S
Li441     H459    10.0   .     S
Li441     B442    9.999   .     S
Li441     Be444    9.999   .     S
Li441     Li121    10.001   1_655     S
B442     H459    9.999   .     S
B442     B122    10.001   1_655     S
He443     H459    10.0   .     S
He443     S457    10.0   .     S
He443     Be444    10.0   .     S
Li445     H451    10.0   .     S
Li445     B446    9.999   .     S
Li445     Be448    9.999   .     S
Li445     Li125    10.001   1_655     S
B446     H451    9.999   .     S
B446     B126    10.001   1_655     S
He447     H451    10.0   .     S
He447     S449    10.0   .     S
He447     Be448    10.0   .     S
He447     Ti480    10.001   .     S
Be448     V473    10.0   .     S
Be448     Er475    10.001   .     S
S449     Ce478    10.0   .     S
S449     Ce450    9.999   .     S
S449     Ti452    10.0   .     S
Ce450     Ti452    9.999   .     S
Ce450     H451    10.0   .     S
Ti452     Er454    10.0   .     S
Er453     Er454    9.999   .     S
Er453     Ti460    10.0   .     S
Er453     V455    10.0   .     S
Er454     V456    10.0   .     S
V455     V456    9.999   .     S
V455     V135    10.001   1_655     S
V456     V136    10.001   1_655     S
S457     Ce458    9.999   .     S
S457     Ti460    10.0   .     S
Ce458     Ti460    9.999   .     S
Ce458     H459    10.0   .     S
Li461     H471    10.0   .     S
Li461     B462    9.999   .     S
Li461     Be464    9.999   .     S
B462     H471    9.999   .     S
He463     H471    10.0   .     S
He463     S469    10.0   .     S
He463     Be464    10.0   .     S
Li465     H479    10.0   .     S
Li465     B466    9.999   .     S
Li465     Be468    9.999   .     S
B466     H479    9.999   .     S
He467     H479    10.0   .     S
He467     S477    10.0   .     S
He467     Be468    10.0   .     S
S469     Ce470    9.999   .     S
S469     Ti472    10.0   .     S
Ce470     Ti472    9.999   .     S
Ce470     H471    10.0   .     S
Ti472     Er476    10.0   .     S
V473     V474    9.999   1_554     S
V473     Er475    10.0   .     S
V474     V473    9.999   1_556     S
V474     Er476    10.0   .     S
Er475     Er476    9.999   1_554     S
Er475     Ti480    10.0   .     S
Er476     Er475    9.999   1_556     S
S477     Ce478    9.999   .     S
S477     Ti480    10.0   .     S
Ce478     Ti480    9.999   .     S
Ce478     H479    10.0   .     S
