data_mtne
_audit_creation_date              2020-02-04
_audit_creation_method            'Pymatgen'
_symmetry_space_group_name_H-M    'P1'
_symmetry_Int_Tables_number       1
loop_
_symmetry_equiv_pos_as_xyz
  x,y,z
_cell_length_a                    75.9054
_cell_length_b                    75.9054
_cell_length_c                    75.9054
_cell_angle_alpha                 90.0
_cell_angle_beta                 90.0
_cell_angle_gamma                 90.0
loop_
_atom_site_label
_atom_site_type_symbol
_atom_site_fract_x
_atom_site_fract_y
_atom_site_fract_z
Er1     Er     0.6267   0.375   0.375
Er2     Er     0.3767   0.125   0.625
Er3     Er     0.125   0.625   0.3767
Er4     Er     0.125   0.125   0.3733
Er5     Er     0.3733   0.125   0.125
Er6     Er     0.375   0.375   0.6267
Er7     Er     0.125   0.3733   0.125
Er8     Er     0.625   0.3767   0.125
Er9     Er     0.625   0.125   0.3767
Er10     Er     0.125   0.8767   0.125
Er11     Er     0.125   0.125   0.8767
Er12     Er     0.375   0.6267   0.375
Er13     Er     0.875   0.375   0.6233
Er14     Er     0.8767   0.625   0.625
Er15     Er     0.625   0.8767   0.625
Er16     Er     0.625   0.625   0.8767
Er17     Er     0.1233   0.375   0.375
Er18     Er     0.375   0.1233   0.375
Er19     Er     0.375   0.375   0.1233
Er20     Er     0.8767   0.125   0.125
Er21     Er     0.875   0.6233   0.375
Er22     Er     0.3767   0.625   0.125
Er23     Er     0.125   0.3767   0.625
Er24     Er     0.6233   0.875   0.375
Er25     Er     0.375   0.1267   0.875
Er26     Er     0.625   0.3733   0.625
Er27     Er     0.1267   0.875   0.375
Er28     Er     0.1267   0.375   0.875
Er29     Er     0.375   0.6233   0.875
Er30     Er     0.375   0.875   0.1267
Er31     Er     0.6233   0.375   0.875
Er32     Er     0.875   0.1267   0.375
Er33     Er     0.875   0.375   0.1267
Er34     Er     0.625   0.625   0.3733
Er35     Er     0.375   0.875   0.6233
Er36     Er     0.8733   0.125   0.625
Er37     Er     0.625   0.8733   0.125
Er38     Er     0.8733   0.625   0.125
Er39     Er     0.625   0.125   0.8733
Er40     Er     0.125   0.8733   0.625
Er41     Er     0.3733   0.625   0.625
Er42     Er     0.125   0.625   0.8733
Er43     Er     0.1233   0.875   0.875
Er44     Er     0.875   0.1233   0.875
Er45     Er     0.875   0.875   0.1233
Er46     Er     0.6267   0.875   0.875
Er47     Er     0.875   0.6267   0.875
Ti48     Ti     0.7996   0.7996   0.7061
Ti49     Ti     0.7996   0.7061   0.7996
Ti50     Ti     0.7061   0.7996   0.7996
V51     V     0.8291   0.8291   0.8291
Ti52     Ti     0.7996   0.0439   0.9504
Ti53     Ti     0.7996   0.9504   0.0439
Ti54     Ti     0.7061   0.9504   0.9504
V55     V     0.8291   0.9209   0.9209
Ti56     Ti     0.9504   0.0439   0.7996
Ti57     Ti     0.9504   0.9504   0.7061
Ti58     Ti     0.0439   0.9504   0.7996
V59     V     0.9209   0.9209   0.8291
Ti60     Ti     0.9504   0.7996   0.0439
Ti61     Ti     0.9504   0.7061   0.9504
Ti62     Ti     0.0439   0.7996   0.9504
V63     V     0.9209   0.8291   0.9209
Ce64     Ce     0.75   0.1567   0.9067
Ce65     Ce     0.1567   0.9067   0.75
Ce66     Ce     0.1567   0.0   0.8433
Ti67     Ti     0.2939   0.7004   0.7004
Ti68     Ti     0.2004   0.7939   0.7004
Ti69     Ti     0.2004   0.7004   0.7939
V70     V     0.1709   0.6709   0.6709
Ti71     Ti     0.0496   0.4561   0.7004
Ti72     Ti     0.0496   0.5496   0.7939
Ti73     Ti     0.9561   0.5496   0.7004
V74     V     0.0791   0.5791   0.6709
Ti75     Ti     0.0496   0.7004   0.4561
Ti76     Ti     0.0496   0.7939   0.5496
Ti77     Ti     0.9561   0.7004   0.5496
V78     V     0.0791   0.6709   0.5791
Ti79     Ti     0.2939   0.5496   0.5496
Ti80     Ti     0.2004   0.4561   0.5496
Ti81     Ti     0.2004   0.5496   0.4561
V82     V     0.1709   0.5791   0.5791
Ce83     Ce     0.8433   0.5933   0.75
Ce84     Ce     0.1567   0.75   0.9067
Ce85     Ce     0.8433   0.6567   0.5
Ti86     Ti     0.2996   0.7996   0.2061
Ti87     Ti     0.2061   0.7996   0.2996
Ti88     Ti     0.2996   0.7061   0.2996
V89     V     0.3291   0.8291   0.3291
Ti90     Ti     0.4504   0.7061   0.4504
Ti91     Ti     0.4504   0.7996   0.5439
Ti92     Ti     0.5439   0.7996   0.4504
V93     V     0.4209   0.8291   0.4209
Ti94     Ti     0.2996   0.9504   0.5439
Ti95     Ti     0.2061   0.9504   0.4504
Ti96     Ti     0.2996   0.0439   0.4504
V97     V     0.3291   0.9209   0.4209
Ti98     Ti     0.5439   0.9504   0.2996
Ti99     Ti     0.4504   0.0439   0.2996
Ti100     Ti     0.4504   0.9504   0.2061
V101     V     0.4209   0.9209   0.3291
Ce102     Ce     0.6567   0.75   0.4067
Ce103     Ce     0.25   0.1567   0.4067
Ce104     Ce     0.3433   0.0   0.6567
Ce105     Ce     0.6567   0.0   0.3433
Ce106     Ce     0.25   0.9067   0.6567
Ce107     Ce     0.5   0.1567   0.3433
Ce108     Ce     0.25   0.5933   0.3433
Ce109     Ce     0.4067   0.75   0.6567
Ce110     Ce     0.3433   0.5933   0.25
Ti111     Ti     0.7996   0.2996   0.2061
Ti112     Ti     0.7061   0.2996   0.2996
Ti113     Ti     0.7996   0.2061   0.2996
V114     V     0.8291   0.3291   0.3291
Ti115     Ti     0.7061   0.4504   0.4504
Ti116     Ti     0.7996   0.4504   0.5439
Ti117     Ti     0.7996   0.5439   0.4504
V118     V     0.8291   0.4209   0.4209
Ti119     Ti     0.9504   0.2996   0.5439
Ti120     Ti     0.0439   0.2996   0.4504
Ti121     Ti     0.9504   0.2061   0.4504
V122     V     0.9209   0.3291   0.4209
Ti123     Ti     0.0439   0.4504   0.2996
Ti124     Ti     0.9504   0.5439   0.2996
Ti125     Ti     0.9504   0.4504   0.2061
V126     V     0.9209   0.4209   0.3291
Ce127     Ce     0.75   0.4067   0.6567
Ce128     Ce     0.1567   0.4067   0.25
Ti129     Ti     0.7004   0.7004   0.2939
Ti130     Ti     0.7939   0.7004   0.2004
Ti131     Ti     0.7004   0.7939   0.2004
V132     V     0.6709   0.6709   0.1709
Ti133     Ti     0.4561   0.7004   0.0496
Ti134     Ti     0.5496   0.7939   0.0496
Ti135     Ti     0.5496   0.7004   0.9561
V136     V     0.5791   0.6709   0.0791
Ti137     Ti     0.5496   0.5496   0.2939
Ti138     Ti     0.5496   0.4561   0.2004
Ti139     Ti     0.4561   0.5496   0.2004
V140     V     0.5791   0.5791   0.1709
Ti141     Ti     0.7004   0.4561   0.0496
Ti142     Ti     0.7939   0.5496   0.0496
Ti143     Ti     0.7004   0.5496   0.9561
V144     V     0.6709   0.5791   0.0791
Ce145     Ce     0.5933   0.75   0.8433
Ce146     Ce     0.9067   0.6567   0.25
Ti147     Ti     0.7939   0.2004   0.7004
Ti148     Ti     0.7004   0.2939   0.7004
Ti149     Ti     0.7004   0.2004   0.7939
V150     V     0.6709   0.1709   0.6709
Ti151     Ti     0.4561   0.0496   0.7004
Ti152     Ti     0.5496   0.0496   0.7939
Ti153     Ti     0.5496   0.9561   0.7004
V154     V     0.5791   0.0791   0.6709
Ti155     Ti     0.7004   0.0496   0.4561
Ti156     Ti     0.7939   0.0496   0.5496
Ti157     Ti     0.7004   0.9561   0.5496
V158     V     0.6709   0.0791   0.5791
Ti159     Ti     0.4561   0.2004   0.5496
Ti160     Ti     0.5496   0.2939   0.5496
Ti161     Ti     0.5496   0.2004   0.4561
V162     V     0.5791   0.1709   0.5791
Ce163     Ce     0.9067   0.1567   0.75
Ce164     Ce     0.75   0.8433   0.5933
Ti165     Ti     0.2996   0.2996   0.7061
Ti166     Ti     0.2061   0.2996   0.7996
Ti167     Ti     0.2996   0.2061   0.7996
V168     V     0.3291   0.3291   0.8291
Ti169     Ti     0.4504   0.4504   0.7061
Ti170     Ti     0.4504   0.5439   0.7996
Ti171     Ti     0.5439   0.4504   0.7996
V172     V     0.4209   0.4209   0.8291
Ti173     Ti     0.2996   0.4504   0.0439
Ti174     Ti     0.2996   0.5439   0.9504
Ti175     Ti     0.2061   0.4504   0.9504
V176     V     0.3291   0.4209   0.9209
Ti177     Ti     0.5439   0.2996   0.9504
Ti178     Ti     0.4504   0.2996   0.0439
Ti179     Ti     0.4504   0.2061   0.9504
V180     V     0.4209   0.3291   0.9209
Ce181     Ce     0.4067   0.6567   0.75
Ce182     Ce     0.6567   0.25   0.9067
Ce183     Ce     0.4067   0.25   0.1567
Ce184     Ce     0.6567   0.8433   0.5
Ce185     Ce     0.6567   0.5   0.8433
Ce186     Ce     0.5   0.8433   0.6567
Ce187     Ce     0.1567   0.3433   0.5
Ce188     Ce     0.5   0.6567   0.8433
Ti189     Ti     0.2004   0.2939   0.2004
Ti190     Ti     0.2939   0.2004   0.2004
Ti191     Ti     0.2004   0.2004   0.2939
V192     V     0.1709   0.1709   0.1709
Ti193     Ti     0.2004   0.9561   0.0496
Ti194     Ti     0.2939   0.0496   0.0496
Ti195     Ti     0.2004   0.0496   0.9561
V196     V     0.1709   0.0791   0.0791
Ti197     Ti     0.9561   0.2004   0.0496
Ti198     Ti     0.0496   0.2939   0.0496
Ti199     Ti     0.0496   0.2004   0.9561
V200     V     0.0791   0.1709   0.0791
Ti201     Ti     0.9561   0.0496   0.2004
Ti202     Ti     0.0496   0.0496   0.2939
Ti203     Ti     0.0496   0.9561   0.2004
V204     V     0.0791   0.0791   0.1709
Ce205     Ce     0.0   0.1567   0.8433
Ce206     Ce     0.1567   0.8433   0.0
Ce207     Ce     0.0   0.8433   0.1567
Ce208     Ce     0.0933   0.25   0.8433
Ce209     Ce     0.25   0.8433   0.0933
Ce210     Ce     0.8433   0.0933   0.25
Ce211     Ce     0.8433   0.1567   0.0
Ce212     Ce     0.0933   0.4067   0.0
Ce213     Ce     0.4067   0.0933   0.0
Ce214     Ce     0.0   0.0933   0.4067
Ce215     Ce     0.4067   0.0   0.0933
Ce216     Ce     0.75   0.6567   0.4067
Ce217     Ce     0.0933   0.0   0.4067
Ce218     Ce     0.25   0.3433   0.5933
Ce219     Ce     0.0   0.4067   0.0933
Ce220     Ce     0.6567   0.3433   0.0
Ce221     Ce     0.6567   0.4067   0.75
Ce222     Ce     0.5933   0.25   0.3433
Ce223     Ce     0.4067   0.1567   0.25
Ce224     Ce     0.75   0.0933   0.3433
Ce225     Ce     0.0   0.6567   0.3433
Ce226     Ce     0.3433   0.25   0.5933
Ce227     Ce     0.5933   0.3433   0.25
Ce228     Ce     0.0933   0.3433   0.75
Ce229     Ce     0.0   0.3433   0.6567
Ce230     Ce     0.25   0.4067   0.1567
Ce231     Ce     0.3433   0.75   0.0933
Ce232     Ce     0.3433   0.5   0.1567
Ce233     Ce     0.1567   0.25   0.4067
Ce234     Ce     0.3433   0.6567   0.0
Ce235     Ce     0.0933   0.75   0.3433
Ce236     Ce     0.3433   0.1567   0.5
Ce237     Ce     0.75   0.5933   0.8433
Ce238     Ce     0.1567   0.5   0.3433
Ce239     Ce     0.5   0.3433   0.1567
Ce240     Ce     0.5933   0.4067   0.5
Ce241     Ce     0.4067   0.5933   0.5
Ce242     Ce     0.4067   0.5   0.5933
Ce243     Ce     0.5933   0.5   0.4067
Ce244     Ce     0.5   0.5933   0.4067
Ce245     Ce     0.75   0.9067   0.1567
Ce246     Ce     0.5   0.4067   0.5933
Ce247     Ce     0.9067   0.25   0.6567
Ce248     Ce     0.6567   0.9067   0.25
Ce249     Ce     0.25   0.6567   0.9067
Ce250     Ce     0.9067   0.0   0.5933
Ce251     Ce     0.0   0.5933   0.9067
Ce252     Ce     0.0   0.9067   0.5933
Ce253     Ce     0.5933   0.0   0.9067
Ce254     Ce     0.9067   0.5933   0.0
Ce255     Ce     0.3433   0.0933   0.75
Ce256     Ce     0.8433   0.5   0.6567
Ce257     Ce     0.5933   0.9067   0.0
Ce258     Ce     0.75   0.3433   0.0933
Ce259     Ce     0.8433   0.0   0.1567
Ce260     Ce     0.8433   0.25   0.0933
Ce261     Ce     0.9067   0.75   0.1567
Ce262     Ce     0.0933   0.8433   0.25
Ce263     Ce     0.25   0.0933   0.8433
Ce264     Ce     0.9067   0.5   0.0933
Ce265     Ce     0.0933   0.9067   0.5
Ce266     Ce     0.0933   0.5   0.9067
Ce267     Ce     0.9067   0.0933   0.5
Ce268     Ce     0.5   0.0933   0.9067
Ce269     Ce     0.5   0.9067   0.0933
Ce270     Ce     0.8433   0.75   0.5933
Ce271     Ce     0.5933   0.8433   0.75
Er272     Er     0.875   0.875   0.6267
loop_
_geom_bond_atom_site_label_1
_geom_bond_atom_site_label_2
_geom_bond_distance
_geom_bond_site_symmetry_2
_ccdc_geom_bond_type
Er1     Ce227    10.11   .     S
Er1     Ti112    10.093   .     S
Er1     Ce222    10.11   .     S
Er1     Ce240    10.11   .     S
Er1     Ti115    10.093   .     S
Er1     Ce243    10.11   .     S
Er2     Ce255    10.11   .     S
Er2     Ti151    10.093   .     S
Er2     Ce104    10.11   .     S
Er2     Ce226    10.11   .     S
Er2     Ti159    10.093   .     S
Er2     Ce236    10.11   .     S
Er3     Ce235    10.11   .     S
Er3     Ti75    10.093   .     S
Er3     Ce225    10.11   .     S
Er3     Ce238    10.11   .     S
Er3     Ti81    10.093   .     S
Er3     Ce108    10.11   .     S
Er4     Ce214    10.11   .     S
Er4     Ti202    10.093   .     S
Er4     Ce217    10.11   .     S
Er4     Ce233    10.11   .     S
Er4     Ti191    10.093   .     S
Er4     Ce103    10.11   .     S
Er5     Ce215    10.11   .     S
Er5     Ti194    10.093   .     S
Er5     Ce213    10.11   .     S
Er5     Ce183    10.11   .     S
Er5     Ti190    10.093   .     S
Er5     Ce223    10.11   .     S
Er6     Ce226    10.11   .     S
Er6     Ti165    10.093   .     S
Er6     Ce218    10.11   .     S
Er6     Ce242    10.11   .     S
Er6     Ti169    10.093   .     S
Er6     Ce246    10.11   .     S
Er7     Ce212    10.11   .     S
Er7     Ti198    10.093   .     S
Er7     Ce219    10.11   .     S
Er7     Ce230    10.11   .     S
Er7     Ti189    10.093   .     S
Er7     Ce128    10.11   .     S
Er8     Ce258    10.11   .     S
Er8     Ti141    10.093   .     S
Er8     Ce220    10.11   .     S
Er8     Ce239    10.11   .     S
Er8     Ti138    10.093   .     S
Er8     Ce227    10.11   .     S
Er9     Ce105    10.11   .     S
Er9     Ti155    10.093   .     S
Er9     Ce224    10.11   .     S
Er9     Ce222    10.11   .     S
Er9     Ti161    10.093   .     S
Er9     Ce107    10.11   .     S
Er10     Ce262    10.11   .     S
Er10     Ti203    10.093   .     S
Er10     Ce207    10.11   .     S
Er10     Ce209    10.11   .     S
Er10     Ti193    10.093   .     S
Er10     Ce206    10.11   .     S
Er11     Ce208    10.11   .     S
Er11     Ti199    10.093   .     S
Er11     Ce205    10.11   .     S
Er11     Ce66    10.11   .     S
Er11     Ti195    10.093   .     S
Er11     Ce263    10.11   .     S
Er12     Ce108    10.11   .     S
Er12     Ti88    10.093   .     S
Er12     Ce110    10.11   .     S
Er12     Ce244    10.11   .     S
Er12     Ti90    10.093   .     S
Er12     Ce241    10.11   .     S
Er13     Ce229    10.11   1_655     S
Er13     Ti119    10.093   .     S
Er13     Ce247    10.11   .     S
Er13     Ce127    10.11   .     S
Er13     Ti116    10.093   .     S
Er13     Ce256    10.11   .     S
Er14     Ce270    10.11   .     S
Er14     Ti77    10.093   .     S
Er14     Ce85    10.11   .     S
Er14     Ce83    10.11   .     S
Er14     Ti73    10.093   .     S
Er14     Ce256    10.11   .     S
Er15     Ce164    10.11   .     S
Er15     Ti157    10.093   .     S
Er15     Ce184    10.11   .     S
Er15     Ce271    10.11   .     S
Er15     Ti153    10.093   .     S
Er15     Ce186    10.11   .     S
Er16     Ce145    10.11   .     S
Er16     Ti135    10.093   .     S
Er16     Ce188    10.11   .     S
Er16     Ce237    10.11   .     S
Er16     Ti143    10.093   .     S
Er16     Ce185    10.11   .     S
Er17     Ce238    10.11   .     S
Er17     Ti123    10.093   .     S
Er17     Ce128    10.11   .     S
Er17     Ce233    10.11   .     S
Er17     Ti120    10.093   .     S
Er17     Ce187    10.11   .     S
Er18     Ce236    10.11   .     S
Er18     Ti96    10.093   .     S
Er18     Ce103    10.11   .     S
Er18     Ce223    10.11   .     S
Er18     Ti99    10.093   .     S
Er18     Ce107    10.11   .     S
Er19     Ce230    10.11   .     S
Er19     Ti173    10.093   .     S
Er19     Ce232    10.11   .     S
Er19     Ce239    10.11   .     S
Er19     Ti178    10.093   .     S
Er19     Ce183    10.11   .     S
Er20     Ce260    10.11   .     S
Er20     Ti197    10.093   .     S
Er20     Ce211    10.11   .     S
Er20     Ce259    10.11   .     S
Er20     Ti201    10.093   .     S
Er20     Ce210    10.11   .     S
Er21     Ce225    10.11   1_655     S
Er21     Ti124    10.093   .     S
Er21     Ce146    10.11   .     S
Er21     Ce216    10.11   .     S
Er21     Ti117    10.093   .     S
Er21     Ce85    10.11   .     S
Er22     Ce231    10.11   .     S
Er22     Ti133    10.093   .     S
Er22     Ce234    10.11   .     S
Er22     Ce110    10.11   .     S
Er22     Ti139    10.093   .     S
Er22     Ce232    10.11   .     S
Er23     Ce229    10.11   .     S
Er23     Ti71    10.093   .     S
Er23     Ce228    10.11   .     S
Er23     Ce218    10.11   .     S
Er23     Ti80    10.093   .     S
Er23     Ce187    10.11   .     S
Er24     Ce248    10.11   .     S
Er24     Ti98    10.093   .     S
Er24     Ce105    10.11   1_565     S
Er24     Ce184    10.11   .     S
Er24     Ti92    10.093   .     S
Er24     Ce102    10.11   .     S
Er25     Ce255    10.11   .     S
Er25     Ti167    10.093   .     S
Er25     Ce263    10.11   .     S
Er25     Ce213    10.11   1_556     S
Er25     Ti179    10.093   .     S
Er25     Ce268    10.11   .     S
Er26     Ce127    10.11   .     S
Er26     Ti148    10.093   .     S
Er26     Ce221    10.11   .     S
Er26     Ce240    10.11   .     S
Er26     Ti160    10.093   .     S
Er26     Ce246    10.11   .     S
Er27     Ce235    10.11   .     S
Er27     Ti87    10.093   .     S
Er27     Ce262    10.11   .     S
Er27     Ce217    10.11   1_565     S
Er27     Ti95    10.093   .     S
Er27     Ce265    10.11   .     S
Er28     Ce228    10.11   .     S
Er28     Ti166    10.093   .     S
Er28     Ce208    10.11   .     S
Er28     Ce212    10.11   1_556     S
Er28     Ti175    10.093   .     S
Er28     Ce266    10.11   .     S
Er29     Ce234    10.11   1_556     S
Er29     Ti174    10.093   .     S
Er29     Ce249    10.11   .     S
Er29     Ce188    10.11   .     S
Er29     Ti170    10.093   .     S
Er29     Ce181    10.11   .     S
Er30     Ce209    10.11   .     S
Er30     Ti86    10.093   .     S
Er30     Ce231    10.11   .     S
Er30     Ce215    10.11   1_565     S
Er30     Ti100    10.093   .     S
Er30     Ce269    10.11   .     S
Er31     Ce220    10.11   1_556     S
Er31     Ti177    10.093   .     S
Er31     Ce182    10.11   .     S
Er31     Ce221    10.11   .     S
Er31     Ti171    10.093   .     S
Er31     Ce185    10.11   .     S
Er32     Ce210    10.11   .     S
Er32     Ti113    10.093   .     S
Er32     Ce224    10.11   .     S
Er32     Ce214    10.11   1_655     S
Er32     Ti121    10.093   .     S
Er32     Ce267    10.11   .     S
Er33     Ce258    10.11   .     S
Er33     Ti111    10.093   .     S
Er33     Ce260    10.11   .     S
Er33     Ce219    10.11   1_655     S
Er33     Ti125    10.093   .     S
Er33     Ce264    10.11   .     S
Er34     Ce102    10.11   .     S
Er34     Ti129    10.093   .     S
Er34     Ce216    10.11   .     S
Er34     Ce244    10.11   .     S
Er34     Ti137    10.093   .     S
Er34     Ce243    10.11   .     S
Er35     Ce104    10.11   1_565     S
Er35     Ti94    10.093   .     S
Er35     Ce106    10.11   .     S
Er35     Ce109    10.11   .     S
Er35     Ti91    10.093   .     S
Er35     Ce186    10.11   .     S
Er36     Ce247    10.11   .     S
Er36     Ti147    10.093   .     S
Er36     Ce163    10.11   .     S
Er36     Ce250    10.11   .     S
Er36     Ti156    10.093   .     S
Er36     Ce267    10.11   .     S
Er37     Ce245    10.11   .     S
Er37     Ti131    10.093   .     S
Er37     Ce248    10.11   .     S
Er37     Ce257    10.11   .     S
Er37     Ti134    10.093   .     S
Er37     Ce269    10.11   .     S
Er38     Ce261    10.11   .     S
Er38     Ti130    10.093   .     S
Er38     Ce146    10.11   .     S
Er38     Ce254    10.11   .     S
Er38     Ti142    10.093   .     S
Er38     Ce264    10.11   .     S
Er39     Ce64    10.11   .     S
Er39     Ti149    10.093   .     S
Er39     Ce182    10.11   .     S
Er39     Ce253    10.11   .     S
Er39     Ti152    10.093   .     S
Er39     Ce268    10.11   .     S
Er40     Ce106    10.11   .     S
Er40     Ti68    10.093   .     S
Er40     Ce65    10.11   .     S
Er40     Ce252    10.11   .     S
Er40     Ti76    10.093   .     S
Er40     Ce265    10.11   .     S
Er41     Ce181    10.11   .     S
Er41     Ti67    10.093   .     S
Er41     Ce109    10.11   .     S
Er41     Ce241    10.11   .     S
Er41     Ti79    10.093   .     S
Er41     Ce242    10.11   .     S
Er42     Ce249    10.11   .     S
Er42     Ti69    10.093   .     S
Er42     Ce84    10.11   .     S
Er42     Ce251    10.11   .     S
Er42     Ti72    10.093   .     S
Er42     Ce266    10.11   .     S
Er43     Ce66    10.11   1_565     S
Er43     Ti58    10.093   .     S
Er43     Ce65    10.11   .     S
Er43     Ce206    10.11   1_556     S
Er43     Ti62    10.093   .     S
Er43     Ce84    10.11   .     S
Er44     Ce211    10.11   1_556     S
Er44     Ti52    10.093   .     S
Er44     Ce64    10.11   .     S
Er44     Ce205    10.11   1_655     S
Er44     Ti56    10.093   .     S
Er44     Ce163    10.11   .     S
Er45     Ce207    10.11   1_655     S
Er45     Ti60    10.093   .     S
Er45     Ce261    10.11   .     S
Er45     Ce259    10.11   1_565     S
Er45     Ti53    10.093   .     S
Er45     Ce245    10.11   .     S
Er46     Ce271    10.11   .     S
Er46     Ti50    10.093   .     S
Er46     Ce145    10.11   .     S
Er46     Ce253    10.11   1_565     S
Er46     Ti54    10.093   .     S
Er46     Ce257    10.11   1_556     S
Er47     Ce237    10.11   .     S
Er47     Ti49    10.093   .     S
Er47     Ce83    10.11   .     S
Er47     Ce251    10.11   1_655     S
Er47     Ti61    10.093   .     S
Er47     Ce254    10.11   1_556     S
Ti48     Ti49    10.036   .     S
Ti48     Ti50    10.036   .     S
Ti48     V51    9.859   .     S
Ti48     Ce164    9.921   .     S
Ti48     Ce270    9.921   .     S
Ti48     Er272    10.093   .     S
Ti49     Ti50    10.036   .     S
Ti49     V51    9.859   .     S
Ti49     Ce237    9.921   .     S
Ti49     Ce83    9.921   .     S
Ti50     V51    9.859   .     S
Ti50     Ce145    9.921   .     S
Ti50     Ce271    9.921   .     S
V51     V55    9.861   .     S
V51     V63    9.861   .     S
V51     V59    9.861   .     S
Ti52     Ti54    10.036   1_545     S
Ti52     Ti53    10.036   1_546     S
Ti52     V55    9.859   1_545     S
Ti52     Ce64    9.921   .     S
Ti52     Ce211    9.921   1_556     S
Ti53     Ti54    10.036   1_554     S
Ti53     Ti52    10.036   1_564     S
Ti53     V55    9.859   1_554     S
Ti53     Ce259    9.921   1_565     S
Ti53     Ce245    9.921   .     S
Ti54     Ti53    10.036   1_556     S
Ti54     Ti52    10.036   1_565     S
Ti54     V55    9.859   .     S
Ti54     Ce253    9.921   1_565     S
Ti54     Ce257    9.921   1_556     S
V55     Ti52    9.859   1_565     S
V55     Ti53    9.859   1_556     S
V55     V59    9.861   .     S
V55     V63    9.861   .     S
Ti56     Ti57    10.036   1_545     S
Ti56     Ti58    10.036   1_645     S
Ti56     V59    9.859   1_545     S
Ti56     Ce205    9.921   1_655     S
Ti56     Ce163    9.921   .     S
Ti57     Ti58    10.036   1_655     S
Ti57     Ti56    10.036   1_565     S
Ti57     V59    9.859   .     S
Ti57     Ce250    9.921   1_565     S
Ti57     Ce252    9.921   1_655     S
Ti57     Er272    10.093   .     S
Ti58     Ti57    10.036   1_455     S
Ti58     Ti56    10.036   1_465     S
Ti58     V59    9.859   1_455     S
Ti58     Ce66    9.921   1_565     S
Ti58     Ce65    9.921   .     S
V59     Ti56    9.859   1_565     S
V59     Ti58    9.859   1_655     S
V59     V63    9.861   .     S
Ti60     Ti61    10.036   1_554     S
Ti60     Ti62    10.036   1_654     S
Ti60     V63    9.859   1_554     S
Ti60     Ce261    9.921   .     S
Ti60     Ce207    9.921   1_655     S
Ti61     Ti62    10.036   1_655     S
Ti61     Ti60    10.036   1_556     S
Ti61     V63    9.859   .     S
Ti61     Ce251    9.921   1_655     S
Ti61     Ce254    9.921   1_556     S
Ti62     Ti61    10.036   1_455     S
Ti62     Ti60    10.036   1_456     S
Ti62     V63    9.859   1_455     S
Ti62     Ce206    9.921   1_556     S
Ti62     Ce84    9.921   .     S
V63     Ti60    9.859   1_556     S
V63     Ti62    9.859   1_655     S
Ce64     Ce211    10.019   1_556     S
Ce64     Ce182    10.019   .     S
Ce64     Ti149    9.921   .     S
Ce65     Ce66    10.019   1_565     S
Ce65     Ce106    10.019   .     S
Ce65     Ti68    9.921   .     S
Ce66     Ce65    10.019   1_545     S
Ce66     Ce263    10.019   .     S
Ce66     Ti58    9.921   1_545     S
Ce66     Ti195    9.921   .     S
Ce66     Er43    10.11   1_545     S
Ti67     Ti68    10.036   .     S
Ti67     Ti69    10.036   .     S
Ti67     V70    9.859   .     S
Ti67     Ce109    9.921   .     S
Ti67     Ce181    9.921   .     S
Ti68     Ti69    10.036   .     S
Ti68     V70    9.859   .     S
Ti68     Ce106    9.921   .     S
Ti69     V70    9.859   .     S
Ti69     Ce84    9.921   .     S
Ti69     Ce249    9.921   .     S
V70     V74    9.861   .     S
V70     V78    9.861   .     S
V70     V82    9.861   .     S
Ti71     Ti72    10.036   .     S
Ti71     Ti73    10.036   1_455     S
Ti71     V74    9.859   .     S
Ti71     Ce228    9.921   .     S
Ti71     Ce229    9.921   .     S
Ti72     Ti73    10.036   1_455     S
Ti72     V74    9.859   .     S
Ti72     Ce251    9.921   .     S
Ti72     Ce266    9.921   .     S
Ti73     Ti71    10.036   1_655     S
Ti73     Ti72    10.036   1_655     S
Ti73     V74    9.859   1_655     S
Ti73     Ce83    9.921   .     S
Ti73     Ce256    9.921   .     S
V74     Ti73    9.859   1_455     S
V74     V78    9.861   .     S
V74     V82    9.861   .     S
Ti75     Ti76    10.036   .     S
Ti75     Ti77    10.036   1_455     S
Ti75     V78    9.859   .     S
Ti75     Ce225    9.921   .     S
Ti75     Ce235    9.921   .     S
Ti76     Ti77    10.036   1_455     S
Ti76     V78    9.859   .     S
Ti76     Ce265    9.921   .     S
Ti76     Ce252    9.921   .     S
Ti77     Ti75    10.036   1_655     S
Ti77     Ti76    10.036   1_655     S
Ti77     V78    9.859   1_655     S
Ti77     Ce85    9.921   .     S
Ti77     Ce270    9.921   .     S
V78     Ti77    9.859   1_455     S
V78     V82    9.861   .     S
Ti79     Ti80    10.036   .     S
Ti79     Ti81    10.036   .     S
Ti79     V82    9.859   .     S
Ti79     Ce241    9.921   .     S
Ti79     Ce242    9.921   .     S
Ti80     Ti81    10.036   .     S
Ti80     V82    9.859   .     S
Ti80     Ce187    9.921   .     S
Ti80     Ce218    9.921   .     S
Ti81     V82    9.859   .     S
Ti81     Ce238    9.921   .     S
Ti81     Ce108    9.921   .     S
Ce83     Ce237    10.019   .     S
Ce83     Ce256    10.019   .     S
Ce84     Ce206    10.019   1_556     S
Ce84     Ce249    10.019   .     S
Ce85     Ce270    10.019   .     S
Ce85     Ce216    10.019   .     S
Ce85     Ti117    9.921   .     S
Ti86     Ti88    10.036   .     S
Ti86     Ti87    10.036   .     S
Ti86     V89    9.859   .     S
Ti86     Ce209    9.921   .     S
Ti86     Ce231    9.921   .     S
Ti87     Ti88    10.036   .     S
Ti87     V89    9.859   .     S
Ti87     Ce262    9.921   .     S
Ti87     Ce235    9.921   .     S
Ti88     V89    9.859   .     S
Ti88     Ce108    9.921   .     S
Ti88     Ce110    9.921   .     S
V89     V93    9.861   .     S
V89     V101    9.861   .     S
V89     V97    9.861   .     S
Ti90     Ti91    10.036   .     S
Ti90     Ti92    10.036   .     S
Ti90     V93    9.859   .     S
Ti90     Ce244    9.921   .     S
Ti90     Ce241    9.921   .     S
Ti91     Ti92    10.036   .     S
Ti91     V93    9.859   .     S
Ti91     Ce186    9.921   .     S
Ti91     Ce109    9.921   .     S
Ti92     V93    9.859   .     S
Ti92     Ce102    9.921   .     S
Ti92     Ce184    9.921   .     S
V93     V97    9.861   .     S
V93     V101    9.861   .     S
Ti94     Ti96    10.036   1_565     S
Ti94     Ti95    10.036   .     S
Ti94     V97    9.859   .     S
Ti94     Ce104    9.921   1_565     S
Ti94     Ce106    9.921   .     S
Ti95     Ti96    10.036   1_565     S
Ti95     V97    9.859   .     S
Ti95     Ce265    9.921   .     S
Ti95     Ce217    9.921   1_565     S
Ti96     Ti94    10.036   1_545     S
Ti96     Ti95    10.036   1_545     S
Ti96     V97    9.859   1_545     S
Ti96     Ce103    9.921   .     S
Ti96     Ce236    9.921   .     S
V97     Ti96    9.859   1_565     S
V97     V101    9.861   .     S
Ti98     Ti99    10.036   1_565     S
Ti98     Ti100    10.036   .     S
Ti98     V101    9.859   .     S
Ti98     Ce105    9.921   1_565     S
Ti98     Ce248    9.921   .     S
Ti99     Ti98    10.036   1_545     S
Ti99     Ti100    10.036   1_545     S
Ti99     V101    9.859   1_545     S
Ti99     Ce107    9.921   .     S
Ti99     Ce223    9.921   .     S
Ti100     Ti99    10.036   1_565     S
Ti100     V101    9.859   .     S
Ti100     Ce269    9.921   .     S
Ti100     Ce215    9.921   1_565     S
V101     Ti99    9.859   1_565     S
Ce102     Ce184    10.019   .     S
Ce102     Ce216    10.019   .     S
Ce102     Ti129    9.921   .     S
Ce103     Ce236    10.019   .     S
Ce103     Ce233    10.019   .     S
Ce103     Ti191    9.921   .     S
Ce104     Ce106    10.019   1_545     S
Ce104     Ce255    10.019   .     S
Ce104     Ti94    9.921   1_545     S
Ce104     Ti151    9.921   .     S
Ce104     Er35    10.11   1_545     S
Ce105     Ce248    10.019   1_545     S
Ce105     Ce224    10.019   .     S
Ce105     Ti98    9.921   1_545     S
Ce105     Ti155    9.921   .     S
Ce105     Er24    10.11   1_545     S
Ce106     Ce104    10.019   1_565     S
Ce107     Ce223    10.019   .     S
Ce107     Ce222    10.019   .     S
Ce107     Ti161    9.921   .     S
Ce108     Ce238    10.019   .     S
Ce108     Ce110    10.019   .     S
Ce109     Ce181    10.019   .     S
Ce109     Ce186    10.019   .     S
Ce110     Ce232    10.019   .     S
Ce110     Ti139    9.921   .     S
Ti111     Ti112    10.036   .     S
Ti111     Ti113    10.036   .     S
Ti111     V114    9.859   .     S
Ti111     Ce260    9.921   .     S
Ti111     Ce258    9.921   .     S
Ti112     Ti113    10.036   .     S
Ti112     V114    9.859   .     S
Ti112     Ce227    9.921   .     S
Ti112     Ce222    9.921   .     S
Ti113     V114    9.859   .     S
Ti113     Ce210    9.921   .     S
Ti113     Ce224    9.921   .     S
V114     V118    9.861   .     S
V114     V122    9.861   .     S
V114     V126    9.861   .     S
Ti115     Ti116    10.036   .     S
Ti115     Ti117    10.036   .     S
Ti115     V118    9.859   .     S
Ti115     Ce240    9.921   .     S
Ti115     Ce243    9.921   .     S
Ti116     Ti117    10.036   .     S
Ti116     V118    9.859   .     S
Ti116     Ce256    9.921   .     S
Ti116     Ce127    9.921   .     S
Ti117     V118    9.859   .     S
Ti117     Ce216    9.921   .     S
V118     V122    9.861   .     S
V118     V126    9.861   .     S
Ti119     Ti120    10.036   1_655     S
Ti119     Ti121    10.036   .     S
Ti119     V122    9.859   .     S
Ti119     Ce247    9.921   .     S
Ti119     Ce229    9.921   1_655     S
Ti120     Ti119    10.036   1_455     S
Ti120     Ti121    10.036   1_455     S
Ti120     V122    9.859   1_455     S
Ti120     Ce187    9.921   .     S
Ti120     Ce233    9.921   .     S
Ti121     Ti120    10.036   1_655     S
Ti121     V122    9.859   .     S
Ti121     Ce267    9.921   .     S
Ti121     Ce214    9.921   1_655     S
V122     Ti120    9.859   1_655     S
V122     V126    9.861   .     S
Ti123     Ti124    10.036   1_455     S
Ti123     Ti125    10.036   1_455     S
Ti123     V126    9.859   1_455     S
Ti123     Ce238    9.921   .     S
Ti123     Ce128    9.921   .     S
Ti124     Ti123    10.036   1_655     S
Ti124     Ti125    10.036   .     S
Ti124     V126    9.859   .     S
Ti124     Ce146    9.921   .     S
Ti124     Ce225    9.921   1_655     S
Ti125     Ti123    10.036   1_655     S
Ti125     V126    9.859   .     S
Ti125     Ce264    9.921   .     S
Ti125     Ce219    9.921   1_655     S
V126     Ti123    9.859   1_655     S
Ce127     Ce256    10.019   .     S
Ce127     Ce221    10.019   .     S
Ce127     Ti148    9.921   .     S
Ce128     Ce238    10.019   .     S
Ce128     Ce230    10.019   .     S
Ce128     Ti189    9.921   .     S
Ti129     Ti130    10.036   .     S
Ti129     Ti131    10.036   .     S
Ti129     V132    9.859   .     S
Ti129     Ce216    9.921   .     S
Ti130     Ti131    10.036   .     S
Ti130     V132    9.859   .     S
Ti130     Ce146    9.921   .     S
Ti130     Ce261    9.921   .     S
Ti131     V132    9.859   .     S
Ti131     Ce248    9.921   .     S
Ti131     Ce245    9.921   .     S
V132     V136    9.861   .     S
V132     V140    9.861   .     S
V132     V144    9.861   .     S
Ti133     Ti134    10.036   .     S
Ti133     Ti135    10.036   1_554     S
Ti133     V136    9.859   .     S
Ti133     Ce234    9.921   .     S
Ti133     Ce231    9.921   .     S
Ti134     Ti135    10.036   1_554     S
Ti134     V136    9.859   .     S
Ti134     Ce257    9.921   .     S
Ti134     Ce269    9.921   .     S
Ti135     Ti133    10.036   1_556     S
Ti135     Ti134    10.036   1_556     S
Ti135     V136    9.859   1_556     S
Ti135     Ce188    9.921   .     S
Ti135     Ce145    9.921   .     S
V136     Ti135    9.859   1_554     S
V136     V144    9.861   .     S
V136     V140    9.861   .     S
Ti137     Ti138    10.036   .     S
Ti137     Ti139    10.036   .     S
Ti137     V140    9.859   .     S
Ti137     Ce244    9.921   .     S
Ti137     Ce243    9.921   .     S
Ti138     Ti139    10.036   .     S
Ti138     V140    9.859   .     S
Ti138     Ce227    9.921   .     S
Ti138     Ce239    9.921   .     S
Ti139     V140    9.859   .     S
Ti139     Ce232    9.921   .     S
V140     V144    9.861   .     S
Ti141     Ti142    10.036   .     S
Ti141     Ti143    10.036   1_554     S
Ti141     V144    9.859   .     S
Ti141     Ce220    9.921   .     S
Ti141     Ce258    9.921   .     S
Ti142     Ti143    10.036   1_554     S
Ti142     V144    9.859   .     S
Ti142     Ce254    9.921   .     S
Ti142     Ce264    9.921   .     S
Ti143     Ti142    10.036   1_556     S
Ti143     Ti141    10.036   1_556     S
Ti143     V144    9.859   1_556     S
Ti143     Ce185    9.921   .     S
Ti143     Ce237    9.921   .     S
V144     Ti143    9.859   1_554     S
Ce145     Ce271    10.019   .     S
Ce145     Ce188    10.019   .     S
Ce146     Ce225    10.019   1_655     S
Ce146     Ce261    10.019   .     S
Ti147     Ti148    10.036   .     S
Ti147     Ti149    10.036   .     S
Ti147     V150    9.859   .     S
Ti147     Ce163    9.921   .     S
Ti147     Ce247    9.921   .     S
Ti148     Ti149    10.036   .     S
Ti148     V150    9.859   .     S
Ti148     Ce221    9.921   .     S
Ti149     V150    9.859   .     S
Ti149     Ce182    9.921   .     S
V150     V154    9.861   .     S
V150     V158    9.861   .     S
V150     V162    9.861   .     S
Ti151     Ti152    10.036   .     S
Ti151     Ti153    10.036   1_545     S
Ti151     V154    9.859   .     S
Ti151     Ce255    9.921   .     S
Ti152     Ti153    10.036   1_545     S
Ti152     V154    9.859   .     S
Ti152     Ce268    9.921   .     S
Ti152     Ce253    9.921   .     S
Ti153     Ti152    10.036   1_565     S
Ti153     Ti151    10.036   1_565     S
Ti153     V154    9.859   1_565     S
Ti153     Ce186    9.921   .     S
Ti153     Ce271    9.921   .     S
V154     Ti153    9.859   1_545     S
V154     V158    9.861   .     S
V154     V162    9.861   .     S
Ti155     Ti156    10.036   .     S
Ti155     Ti157    10.036   1_545     S
Ti155     V158    9.859   .     S
Ti155     Ce224    9.921   .     S
Ti156     Ti157    10.036   1_545     S
Ti156     V158    9.859   .     S
Ti156     Ce250    9.921   .     S
Ti156     Ce267    9.921   .     S
Ti157     Ti155    10.036   1_565     S
Ti157     Ti156    10.036   1_565     S
Ti157     V158    9.859   1_565     S
Ti157     Ce184    9.921   .     S
Ti157     Ce164    9.921   .     S
V158     Ti157    9.859   1_545     S
V158     V162    9.861   .     S
Ti159     Ti161    10.036   .     S
Ti159     Ti160    10.036   .     S
Ti159     V162    9.859   .     S
Ti159     Ce236    9.921   .     S
Ti159     Ce226    9.921   .     S
Ti160     Ti161    10.036   .     S
Ti160     V162    9.859   .     S
Ti160     Ce240    9.921   .     S
Ti160     Ce246    9.921   .     S
Ti161     V162    9.859   .     S
Ti161     Ce222    9.921   .     S
Ce163     Ce205    10.019   1_655     S
Ce163     Ce247    10.019   .     S
Ce164     Ce270    10.019   .     S
Ce164     Ce184    10.019   .     S
Ce164     Er272    10.11   .     S
Ti165     Ti166    10.036   .     S
Ti165     Ti167    10.036   .     S
Ti165     V168    9.859   .     S
Ti165     Ce226    9.921   .     S
Ti165     Ce218    9.921   .     S
Ti166     Ti167    10.036   .     S
Ti166     V168    9.859   .     S
Ti166     Ce208    9.921   .     S
Ti166     Ce228    9.921   .     S
Ti167     V168    9.859   .     S
Ti167     Ce263    9.921   .     S
Ti167     Ce255    9.921   .     S
V168     V172    9.861   .     S
V168     V176    9.861   .     S
V168     V180    9.861   .     S
Ti169     Ti170    10.036   .     S
Ti169     Ti171    10.036   .     S
Ti169     V172    9.859   .     S
Ti169     Ce242    9.921   .     S
Ti169     Ce246    9.921   .     S
Ti170     Ti171    10.036   .     S
Ti170     V172    9.859   .     S
Ti170     Ce181    9.921   .     S
Ti170     Ce188    9.921   .     S
Ti171     V172    9.859   .     S
Ti171     Ce185    9.921   .     S
Ti171     Ce221    9.921   .     S
V172     V176    9.861   .     S
V172     V180    9.861   .     S
Ti173     Ti174    10.036   1_554     S
Ti173     Ti175    10.036   1_554     S
Ti173     V176    9.859   1_554     S
Ti173     Ce232    9.921   .     S
Ti173     Ce230    9.921   .     S
Ti174     Ti173    10.036   1_556     S
Ti174     Ti175    10.036   .     S
Ti174     V176    9.859   .     S
Ti174     Ce249    9.921   .     S
Ti174     Ce234    9.921   1_556     S
Ti175     Ti173    10.036   1_556     S
Ti175     V176    9.859   .     S
Ti175     Ce266    9.921   .     S
Ti175     Ce212    9.921   1_556     S
V176     Ti173    9.859   1_556     S
V176     V180    9.861   .     S
Ti177     Ti178    10.036   1_556     S
Ti177     Ti179    10.036   .     S
Ti177     V180    9.859   .     S
Ti177     Ce182    9.921   .     S
Ti177     Ce220    9.921   1_556     S
Ti178     Ti177    10.036   1_554     S
Ti178     Ti179    10.036   1_554     S
Ti178     V180    9.859   1_554     S
Ti178     Ce183    9.921   .     S
Ti178     Ce239    9.921   .     S
Ti179     Ti178    10.036   1_556     S
Ti179     V180    9.859   .     S
Ti179     Ce268    9.921   .     S
Ti179     Ce213    9.921   1_556     S
V180     Ti178    9.859   1_556     S
Ce181     Ce188    10.019   .     S
Ce182     Ce220    10.019   1_556     S
Ce183     Ce239    10.019   .     S
Ce183     Ce223    10.019   .     S
Ce183     Ti190    9.921   .     S
Ce185     Ce237    10.019   .     S
Ce185     Ce221    10.019   .     S
Ce186     Ce271    10.019   .     S
Ce187     Ce218    10.019   .     S
Ce187     Ce233    10.019   .     S
Ti189     Ti190    10.036   .     S
Ti189     Ti191    10.036   .     S
Ti189     V192    9.859   .     S
Ti189     Ce230    9.921   .     S
Ti190     Ti191    10.036   .     S
Ti190     V192    9.859   .     S
Ti190     Ce223    9.921   .     S
Ti191     V192    9.859   .     S
Ti191     Ce233    9.921   .     S
V192     V196    9.861   .     S
V192     V200    9.861   .     S
V192     V204    9.861   .     S
Ti193     Ti194    10.036   1_565     S
Ti193     Ti195    10.036   1_564     S
Ti193     V196    9.859   1_565     S
Ti193     Ce206    9.921   .     S
Ti193     Ce209    9.921   .     S
Ti194     Ti193    10.036   1_545     S
Ti194     Ti195    10.036   1_554     S
Ti194     V196    9.859   .     S
Ti194     Ce215    9.921   .     S
Ti194     Ce213    9.921   .     S
Ti195     Ti194    10.036   1_556     S
Ti195     Ti193    10.036   1_546     S
Ti195     V196    9.859   1_556     S
Ti195     Ce263    9.921   .     S
V196     Ti193    9.859   1_545     S
V196     Ti195    9.859   1_554     S
V196     V204    9.861   .     S
V196     V200    9.861   .     S
Ti197     Ti198    10.036   1_655     S
Ti197     Ti199    10.036   1_654     S
Ti197     V200    9.859   1_655     S
Ti197     Ce211    9.921   .     S
Ti197     Ce260    9.921   .     S
Ti198     Ti197    10.036   1_455     S
Ti198     Ti199    10.036   1_554     S
Ti198     V200    9.859   .     S
Ti198     Ce212    9.921   .     S
Ti198     Ce219    9.921   .     S
Ti199     Ti198    10.036   1_556     S
Ti199     Ti197    10.036   1_456     S
Ti199     V200    9.859   1_556     S
Ti199     Ce205    9.921   .     S
Ti199     Ce208    9.921   .     S
V200     Ti197    9.859   1_455     S
V200     Ti199    9.859   1_554     S
V200     V204    9.861   .     S
Ti201     Ti202    10.036   1_655     S
Ti201     Ti203    10.036   1_645     S
Ti201     V204    9.859   1_655     S
Ti201     Ce210    9.921   .     S
Ti201     Ce259    9.921   .     S
Ti202     Ti201    10.036   1_455     S
Ti202     Ti203    10.036   1_545     S
Ti202     V204    9.859   .     S
Ti202     Ce214    9.921   .     S
Ti202     Ce217    9.921   .     S
Ti203     Ti202    10.036   1_565     S
Ti203     Ti201    10.036   1_465     S
Ti203     V204    9.859   1_565     S
Ti203     Ce207    9.921   .     S
Ti203     Ce262    9.921   .     S
V204     Ti201    9.859   1_455     S
V204     Ti203    9.859   1_545     S
Ce205     Ce163    10.019   1_455     S
Ce205     Ce208    10.019   .     S
Ce205     Ti56    9.921   1_455     S
Ce205     Er44    10.11   1_455     S
Ce206     Ce84    10.019   1_554     S
Ce206     Ce209    10.019   .     S
Ce206     Ti62    9.921   1_554     S
Ce206     Er43    10.11   1_554     S
Ce207     Ce261    10.019   1_455     S
Ce207     Ce262    10.019   .     S
Ce207     Ti60    9.921   1_455     S
Ce207     Er45    10.11   1_455     S
Ce208     Ce228    10.019   .     S
Ce209     Ce231    10.019   .     S
Ce210     Ce224    10.019   .     S
Ce210     Ce259    10.019   .     S
Ce211     Ce64    10.019   1_554     S
Ce211     Ce260    10.019   .     S
Ce211     Ti52    9.921   1_554     S
Ce211     Er44    10.11   1_554     S
Ce212     Ce266    10.019   1_554     S
Ce212     Ce219    10.019   .     S
Ce212     Ti175    9.921   1_554     S
Ce212     Er28    10.11   1_554     S
Ce213     Ce268    10.019   1_554     S
Ce213     Ce215    10.019   .     S
Ce213     Ti179    9.921   1_554     S
Ce213     Er25    10.11   1_554     S
Ce214     Ce267    10.019   1_455     S
Ce214     Ce217    10.019   .     S
Ce214     Ti121    9.921   1_455     S
Ce214     Er32    10.11   1_455     S
Ce215     Ce269    10.019   1_545     S
Ce215     Ti100    9.921   1_545     S
Ce215     Er30    10.11   1_545     S
Ce217     Ce265    10.019   1_545     S
Ce217     Ti95    9.921   1_545     S
Ce217     Er27    10.11   1_545     S
Ce218     Ce226    10.019   .     S
Ce219     Ce264    10.019   1_455     S
Ce219     Ti125    9.921   1_455     S
Ce219     Er33    10.11   1_455     S
Ce220     Ce258    10.019   .     S
Ce220     Ce182    10.019   1_554     S
Ce220     Ti177    9.921   1_554     S
Ce220     Er31    10.11   1_554     S
Ce222     Ce227    10.019   .     S
Ce225     Ce235    10.019   .     S
Ce225     Ce146    10.019   1_455     S
Ce225     Ti124    9.921   1_455     S
Ce225     Er21    10.11   1_455     S
Ce226     Ce236    10.019   .     S
Ce227     Ce239    10.019   .     S
Ce228     Ce229    10.019   .     S
Ce229     Ce247    10.019   1_455     S
Ce229     Ti119    9.921   1_455     S
Ce229     Er13    10.11   1_455     S
Ce230     Ce232    10.019   .     S
Ce231     Ce234    10.019   .     S
Ce234     Ce249    10.019   1_554     S
Ce234     Ti174    9.921   1_554     S
Ce234     Er29    10.11   1_554     S
Ce235     Ce262    10.019   .     S
Ce240     Ce243    10.019   .     S
Ce240     Ce246    10.019   .     S
Ce241     Ce242    10.019   .     S
Ce241     Ce244    10.019   .     S
Ce242     Ce246    10.019   .     S
Ce243     Ce244    10.019   .     S
Ce245     Ce259    10.019   1_565     S
Ce245     Ce248    10.019   .     S
Ce247     Ce229    10.019   1_655     S
Ce248     Ce105    10.019   1_565     S
Ce249     Ce234    10.019   1_556     S
Ce250     Ce252    10.019   1_645     S
Ce250     Ce267    10.019   .     S
Ce250     Ti57    9.921   1_545     S
Ce250     Er272    10.11   1_545     S
Ce251     Ce254    10.019   1_456     S
Ce251     Ce266    10.019   .     S
Ce251     Ti61    9.921   1_455     S
Ce251     Er47    10.11   1_455     S
Ce252     Ce250    10.019   1_465     S
Ce252     Ce265    10.019   .     S
Ce252     Ti57    9.921   1_455     S
Ce252     Er272    10.11   1_455     S
Ce253     Ce257    10.019   1_546     S
Ce253     Ce268    10.019   .     S
Ce253     Ti54    9.921   1_545     S
Ce253     Er46    10.11   1_545     S
Ce254     Ce251    10.019   1_654     S
Ce254     Ce264    10.019   .     S
Ce254     Ti61    9.921   1_554     S
Ce254     Er47    10.11   1_554     S
Ce255     Ce263    10.019   .     S
Ce257     Ce253    10.019   1_564     S
Ce257     Ce269    10.019   .     S
Ce257     Ti54    9.921   1_554     S
Ce257     Er46    10.11   1_554     S
Ce258     Ce260    10.019   .     S
Ce259     Ce245    10.019   1_545     S
Ce259     Ti53    9.921   1_545     S
Ce259     Er45    10.11   1_545     S
Ce261     Ce207    10.019   1_655     S
Ce264     Ce219    10.019   1_655     S
Ce265     Ce217    10.019   1_565     S
Ce266     Ce212    10.019   1_556     S
Ce267     Ce214    10.019   1_655     S
Ce268     Ce213    10.019   1_556     S
Ce269     Ce215    10.019   1_565     S
Ce270     Er272    10.11   .     S
Er272     Ce250    10.11   1_565     S
Er272     Ce252    10.11   1_655     S
