data_naz
_audit_creation_date              2020-02-04
_audit_creation_method            'Pymatgen'
_symmetry_space_group_name_H-M    'P1'
_symmetry_Int_Tables_number       1
loop_
_symmetry_equiv_pos_as_xyz
  x,y,z
_cell_length_a                    45.7046
_cell_length_b                    45.7046
_cell_length_c                    45.7046
_cell_angle_alpha                 90.0
_cell_angle_beta                 90.0
_cell_angle_gamma                 90.0
loop_
_atom_site_label
_atom_site_type_symbol
_atom_site_fract_x
_atom_site_fract_y
_atom_site_fract_z
V1     V     0.3859   0.5   0.1761
V2     V     0.1761   0.5   0.1141
V3     V     0.1141   0.5   0.3239
V4     V     0.3239   0.5   0.3859
V5     V     0.1761   0.3859   0.5
V6     V     0.1141   0.1761   0.5
V7     V     0.3239   0.1141   0.5
V8     V     0.3859   0.3239   0.5
V9     V     0.6761   0.5   0.3859
V10     V     0.6141   0.5   0.1761
V11     V     0.8239   0.5   0.1141
V12     V     0.8859   0.5   0.3239
V13     V     0.5   0.8859   0.1761
V14     V     0.5   0.8239   0.3859
V15     V     0.5   0.6761   0.1141
V16     V     0.5   0.6141   0.3239
V17     V     0.5   0.3239   0.1141
V18     V     0.5   0.1141   0.1761
V19     V     0.5   0.1761   0.3859
V20     V     0.5   0.3859   0.3239
V21     V     0.1141   0.5   0.6761
V22     V     0.3239   0.5   0.6141
V23     V     0.3859   0.5   0.8239
V24     V     0.1761   0.5   0.8859
V25     V     0.5   0.1141   0.8239
V26     V     0.5   0.3239   0.8859
V27     V     0.5   0.3859   0.6761
V28     V     0.5   0.1761   0.6141
V29     V     0.1141   0.3239   0.0
V30     V     0.1761   0.1141   0.0
V31     V     0.3859   0.1761   0.0
V32     V     0.3239   0.3859   0.0
V33     V     0.3859   0.0   0.6761
V34     V     0.1761   0.0   0.6141
V35     V     0.1141   0.0   0.8239
V36     V     0.3239   0.0   0.8859
V37     V     0.1141   0.8239   0.5
V38     V     0.3239   0.8859   0.5
V39     V     0.3859   0.6761   0.5
V40     V     0.1761   0.6141   0.5
V41     V     0.1141   0.0   0.1761
V42     V     0.1761   0.0   0.3859
V43     V     0.3239   0.0   0.1141
V44     V     0.3859   0.0   0.3239
V45     V     0.3859   0.8239   0.0
V46     V     0.1761   0.8859   0.0
V47     V     0.1141   0.6761   0.0
V48     V     0.3239   0.6141   0.0
V49     V     0.5   0.8239   0.6141
V50     V     0.5   0.8859   0.8239
V51     V     0.5   0.6761   0.8859
V52     V     0.5   0.6141   0.6761
V53     V     0.8239   0.0   0.6141
V54     V     0.8859   0.0   0.8239
V55     V     0.6761   0.0   0.8859
V56     V     0.6141   0.0   0.6761
V57     V     0.0   0.8239   0.8859
V58     V     0.0   0.8859   0.6761
V59     V     0.0   0.6761   0.6141
V60     V     0.0   0.6141   0.8239
V61     V     0.8239   0.8859   0.0
V62     V     0.6141   0.8239   0.0
V63     V     0.8859   0.6761   0.0
V64     V     0.6761   0.6141   0.0
V65     V     0.8239   0.5   0.8859
V66     V     0.8859   0.5   0.6761
V67     V     0.6761   0.5   0.6141
V68     V     0.6141   0.5   0.8239
V69     V     0.8239   0.1141   0.0
V70     V     0.8859   0.3239   0.0
V71     V     0.6141   0.1761   0.0
V72     V     0.6761   0.3859   0.0
V73     V     0.0   0.1141   0.6761
V74     V     0.0   0.3239   0.6141
V75     V     0.0   0.3859   0.8239
V76     V     0.0   0.1761   0.8859
V77     V     0.6761   0.1141   0.5
V78     V     0.6141   0.3239   0.5
V79     V     0.8859   0.1761   0.5
V80     V     0.8239   0.3859   0.5
V81     V     0.0   0.6761   0.3859
V82     V     0.0   0.6141   0.1761
V83     V     0.0   0.8239   0.1141
V84     V     0.0   0.8859   0.3239
V85     V     0.8859   0.8239   0.5
V86     V     0.8239   0.6141   0.5
V87     V     0.6141   0.6761   0.5
V88     V     0.6761   0.8859   0.5
V89     V     0.8859   0.0   0.1761
V90     V     0.8239   0.0   0.3859
V91     V     0.6761   0.0   0.1141
V92     V     0.6141   0.0   0.3239
V93     V     0.0   0.1141   0.3239
V94     V     0.0   0.3859   0.1761
V95     V     0.0   0.1761   0.1141
V96     V     0.0   0.3239   0.3859
loop_
_geom_bond_atom_site_label_1
_geom_bond_atom_site_label_2
_geom_bond_distance
_geom_bond_site_symmetry_2
_ccdc_geom_bond_type
V1     V20    10.0   .     S
V1     V17    10.0   .     S
V1     V32    10.0   .     S
V1     V4    10.0   .     S
V1     V2    10.0   .     S
V1     V48    10.0   .     S
V1     V16    10.0   .     S
V1     V15    10.0   .     S
V2     V94    10.0   .     S
V2     V32    10.0   .     S
V2     V29    10.0   .     S
V2     V3    10.0   .     S
V2     V48    10.0   .     S
V2     V47    10.0   .     S
V2     V82    10.0   .     S
V3     V5    10.0   .     S
V3     V94    10.0   .     S
V3     V96    10.0   .     S
V3     V4    10.0   .     S
V3     V40    10.0   .     S
V3     V82    10.0   .     S
V3     V81    10.0   .     S
V4     V5    10.0   .     S
V4     V8    10.0   .     S
V4     V20    10.0   .     S
V4     V40    10.0   .     S
V4     V39    10.0   .     S
V4     V16    10.0   .     S
V5     V74    10.0   .     S
V5     V22    10.0   .     S
V5     V21    10.0   .     S
V5     V96    10.0   .     S
V5     V8    10.0   .     S
V5     V6    10.0   .     S
V6     V74    10.0   .     S
V6     V73    10.0   .     S
V6     V34    10.0   .     S
V6     V96    10.0   .     S
V6     V93    10.0   .     S
V6     V7    10.0   .     S
V6     V42    10.0   .     S
V7     V28    10.0   .     S
V7     V34    10.0   .     S
V7     V33    10.0   .     S
V7     V8    10.0   .     S
V7     V19    10.0   .     S
V7     V42    10.0   .     S
V7     V44    10.0   .     S
V8     V28    10.0   .     S
V8     V27    10.0   .     S
V8     V22    10.0   .     S
V8     V19    10.0   .     S
V8     V20    10.0   .     S
V9     V16    10.0   .     S
V9     V86    10.0   .     S
V9     V87    10.0   .     S
V9     V12    10.0   .     S
V9     V10    10.0   .     S
V9     V80    10.0   .     S
V9     V78    10.0   .     S
V9     V20    10.0   .     S
V10     V16    10.0   .     S
V10     V15    10.0   .     S
V10     V64    10.0   .     S
V10     V11    10.0   .     S
V10     V20    10.0   .     S
V10     V17    10.0   .     S
V10     V72    10.0   .     S
V11     V64    10.0   .     S
V11     V63    10.0   .     S
V11     V12    10.0   .     S
V11     V94    10.0   1_655     S
V11     V82    10.0   1_655     S
V11     V72    10.0   .     S
V11     V70    10.0   .     S
V12     V86    10.0   .     S
V12     V80    10.0   .     S
V12     V94    10.0   1_655     S
V12     V96    10.0   1_655     S
V12     V82    10.0   1_655     S
V12     V81    10.0   1_655     S
V13     V62    10.0   .     S
V13     V45    10.0   .     S
V13     V44    10.0   1_565     S
V13     V43    10.0   1_565     S
V13     V14    10.0   .     S
V13     V15    10.0   .     S
V13     V92    10.0   1_565     S
V13     V91    10.0   1_565     S
V14     V39    10.0   .     S
V14     V38    10.0   .     S
V14     V44    10.0   1_565     S
V14     V16    10.0   .     S
V14     V92    10.0   1_565     S
V14     V87    10.0   .     S
V14     V88    10.0   .     S
V15     V62    10.0   .     S
V15     V64    10.0   .     S
V15     V45    10.0   .     S
V15     V48    10.0   .     S
V15     V16    10.0   .     S
V16     V39    10.0   .     S
V16     V87    10.0   .     S
V17     V31    10.0   .     S
V17     V32    10.0   .     S
V17     V20    10.0   .     S
V17     V18    10.0   .     S
V17     V71    10.0   .     S
V17     V72    10.0   .     S
V18     V31    10.0   .     S
V18     V44    10.0   .     S
V18     V43    10.0   .     S
V18     V92    10.0   .     S
V18     V91    10.0   .     S
V18     V19    10.0   .     S
V18     V71    10.0   .     S
V19     V44    10.0   .     S
V19     V78    10.0   .     S
V19     V77    10.0   .     S
V19     V92    10.0   .     S
V19     V20    10.0   .     S
V20     V78    10.0   .     S
V21     V40    10.0   .     S
V21     V60    10.0   .     S
V21     V59    10.0   .     S
V21     V24    10.0   .     S
V21     V22    10.0   .     S
V21     V75    10.0   .     S
V21     V74    10.0   .     S
V22     V40    10.0   .     S
V22     V39    10.0   .     S
V22     V52    10.0   .     S
V22     V27    10.0   .     S
V22     V23    10.0   .     S
V23     V52    10.0   .     S
V23     V51    10.0   .     S
V23     V27    10.0   .     S
V23     V26    10.0   .     S
V23     V32    10.0   1_556     S
V23     V24    10.0   .     S
V23     V48    10.0   1_556     S
V24     V32    10.0   1_556     S
V24     V29    10.0   1_556     S
V24     V60    10.0   .     S
V24     V75    10.0   .     S
V24     V48    10.0   1_556     S
V24     V47    10.0   1_556     S
V25     V56    10.0   .     S
V25     V55    10.0   .     S
V25     V33    10.0   .     S
V25     V36    10.0   .     S
V25     V71    10.0   1_556     S
V25     V28    10.0   .     S
V25     V26    10.0   .     S
V25     V31    10.0   1_556     S
V26     V68    10.0   .     S
V26     V71    10.0   1_556     S
V26     V72    10.0   1_556     S
V26     V27    10.0   .     S
V26     V31    10.0   1_556     S
V26     V32    10.0   1_556     S
V27     V78    10.0   .     S
V27     V68    10.0   .     S
V27     V67    10.0   .     S
V27     V28    10.0   .     S
V28     V78    10.0   .     S
V28     V77    10.0   .     S
V28     V56    10.0   .     S
V28     V33    10.0   .     S
V29     V95    10.0   .     S
V29     V94    10.0   .     S
V29     V24    10.0   1_554     S
V29     V76    10.0   1_554     S
V29     V75    10.0   1_554     S
V29     V32    10.0   .     S
V29     V30    10.0   .     S
V30     V95    10.0   .     S
V30     V43    10.0   .     S
V30     V41    10.0   .     S
V30     V76    10.0   1_554     S
V30     V36    10.0   1_554     S
V30     V35    10.0   1_554     S
V30     V31    10.0   .     S
V31     V43    10.0   .     S
V31     V36    10.0   1_554     S
V31     V32    10.0   .     S
V31     V26    10.0   1_554     S
V31     V25    10.0   1_554     S
V32     V24    10.0   1_554     S
V32     V23    10.0   1_554     S
V32     V26    10.0   1_554     S
V33     V50    10.0   1_545     S
V33     V49    10.0   1_545     S
V33     V36    10.0   .     S
V33     V34    10.0   .     S
V33     V38    10.0   1_545     S
V34     V35    10.0   .     S
V34     V38    10.0   1_545     S
V34     V37    10.0   1_545     S
V34     V58    10.0   1_545     S
V34     V73    10.0   .     S
V35     V46    10.0   1_546     S
V35     V30    10.0   1_556     S
V35     V36    10.0   .     S
V35     V58    10.0   1_545     S
V35     V57    10.0   1_545     S
V35     V73    10.0   .     S
V35     V76    10.0   .     S
V36     V46    10.0   1_546     S
V36     V45    10.0   1_546     S
V36     V50    10.0   1_545     S
V36     V30    10.0   1_556     S
V36     V31    10.0   1_556     S
V37     V59    10.0   .     S
V37     V58    10.0   .     S
V37     V81    10.0   .     S
V37     V84    10.0   .     S
V37     V34    10.0   1_565     S
V37     V40    10.0   .     S
V37     V38    10.0   .     S
V37     V42    10.0   1_565     S
V38     V49    10.0   .     S
V38     V34    10.0   1_565     S
V38     V33    10.0   1_565     S
V38     V39    10.0   .     S
V38     V42    10.0   1_565     S
V38     V44    10.0   1_565     S
V39     V49    10.0   .     S
V39     V52    10.0   .     S
V39     V40    10.0   .     S
V40     V59    10.0   .     S
V40     V81    10.0   .     S
V41     V93    10.0   .     S
V41     V95    10.0   .     S
V41     V84    10.0   1_545     S
V41     V83    10.0   1_545     S
V41     V42    10.0   .     S
V41     V43    10.0   .     S
V41     V46    10.0   1_545     S
V42     V93    10.0   .     S
V42     V84    10.0   1_545     S
V42     V44    10.0   .     S
V42     V38    10.0   1_545     S
V42     V37    10.0   1_545     S
V43     V13    10.0   1_545     S
V43     V44    10.0   .     S
V43     V46    10.0   1_545     S
V43     V45    10.0   1_545     S
V44     V13    10.0   1_545     S
V44     V14    10.0   1_545     S
V44     V38    10.0   1_545     S
V45     V36    10.0   1_564     S
V45     V43    10.0   1_565     S
V45     V48    10.0   .     S
V45     V46    10.0   .     S
V45     V51    10.0   1_554     S
V45     V50    10.0   1_554     S
V46     V83    10.0   .     S
V46     V36    10.0   1_564     S
V46     V35    10.0   1_564     S
V46     V43    10.0   1_565     S
V46     V41    10.0   1_565     S
V46     V47    10.0   .     S
V46     V57    10.0   1_554     S
V47     V83    10.0   .     S
V47     V82    10.0   .     S
V47     V24    10.0   1_554     S
V47     V48    10.0   .     S
V47     V57    10.0   1_554     S
V47     V60    10.0   1_554     S
V48     V24    10.0   1_554     S
V48     V23    10.0   1_554     S
V48     V51    10.0   1_554     S
V49     V33    10.0   1_565     S
V49     V52    10.0   .     S
V49     V50    10.0   .     S
V49     V56    10.0   1_565     S
V49     V87    10.0   .     S
V49     V88    10.0   .     S
V50     V33    10.0   1_565     S
V50     V36    10.0   1_565     S
V50     V45    10.0   1_556     S
V50     V51    10.0   .     S
V50     V62    10.0   1_556     S
V50     V56    10.0   1_565     S
V50     V55    10.0   1_565     S
V51     V68    10.0   .     S
V51     V45    10.0   1_556     S
V51     V48    10.0   1_556     S
V51     V52    10.0   .     S
V51     V62    10.0   1_556     S
V51     V64    10.0   1_556     S
V52     V68    10.0   .     S
V52     V67    10.0   .     S
V52     V87    10.0   .     S
V53     V77    10.0   .     S
V53     V79    10.0   .     S
V53     V73    10.0   1_655     S
V53     V58    10.0   1_645     S
V53     V56    10.0   .     S
V53     V54    10.0   .     S
V53     V88    10.0   1_545     S
V53     V85    10.0   1_545     S
V54     V73    10.0   1_655     S
V54     V76    10.0   1_655     S
V54     V58    10.0   1_645     S
V54     V57    10.0   1_645     S
V54     V69    10.0   1_556     S
V54     V55    10.0   .     S
V54     V61    10.0   1_546     S
V55     V69    10.0   1_556     S
V55     V71    10.0   1_556     S
V55     V56    10.0   .     S
V55     V61    10.0   1_546     S
V55     V62    10.0   1_546     S
V55     V50    10.0   1_545     S
V56     V77    10.0   .     S
V56     V50    10.0   1_545     S
V56     V49    10.0   1_545     S
V56     V88    10.0   1_545     S
V57     V54    10.0   1_465     S
V57     V35    10.0   1_565     S
V57     V47    10.0   1_556     S
V57     V46    10.0   1_556     S
V57     V60    10.0   .     S
V57     V58    10.0   .     S
V57     V63    10.0   1_456     S
V57     V61    10.0   1_456     S
V58     V54    10.0   1_465     S
V58     V53    10.0   1_465     S
V58     V35    10.0   1_565     S
V58     V34    10.0   1_565     S
V58     V59    10.0   .     S
V58     V85    10.0   1_455     S
V59     V66    10.0   1_455     S
V59     V60    10.0   .     S
V59     V85    10.0   1_455     S
V59     V86    10.0   1_455     S
V60     V66    10.0   1_455     S
V60     V65    10.0   1_455     S
V60     V47    10.0   1_556     S
V60     V63    10.0   1_456     S
V61     V55    10.0   1_564     S
V61     V54    10.0   1_564     S
V61     V91    10.0   1_565     S
V61     V89    10.0   1_565     S
V61     V83    10.0   1_655     S
V61     V62    10.0   .     S
V61     V63    10.0   .     S
V61     V57    10.0   1_654     S
V62     V51    10.0   1_554     S
V62     V50    10.0   1_554     S
V62     V55    10.0   1_564     S
V62     V91    10.0   1_565     S
V62     V64    10.0   .     S
V63     V83    10.0   1_655     S
V63     V82    10.0   1_655     S
V63     V64    10.0   .     S
V63     V57    10.0   1_654     S
V63     V60    10.0   1_654     S
V63     V65    10.0   1_554     S
V64     V51    10.0   1_554     S
V64     V65    10.0   1_554     S
V64     V68    10.0   1_554     S
V65     V60    10.0   1_655     S
V65     V64    10.0   1_556     S
V65     V63    10.0   1_556     S
V65     V75    10.0   1_655     S
V65     V68    10.0   .     S
V65     V66    10.0   .     S
V65     V72    10.0   1_556     S
V65     V70    10.0   1_556     S
V66     V80    10.0   .     S
V66     V60    10.0   1_655     S
V66     V59    10.0   1_655     S
V66     V75    10.0   1_655     S
V66     V74    10.0   1_655     S
V66     V67    10.0   .     S
V66     V86    10.0   .     S
V67     V80    10.0   .     S
V67     V78    10.0   .     S
V67     V68    10.0   .     S
V67     V86    10.0   .     S
V67     V87    10.0   .     S
V68     V64    10.0   1_556     S
V68     V72    10.0   1_556     S
V69     V95    10.0   1_655     S
V69     V55    10.0   1_554     S
V69     V54    10.0   1_554     S
V69     V71    10.0   .     S
V69     V70    10.0   .     S
V69     V76    10.0   1_654     S
V69     V91    10.0   .     S
V69     V89    10.0   .     S
V70     V95    10.0   1_655     S
V70     V94    10.0   1_655     S
V70     V65    10.0   1_554     S
V70     V72    10.0   .     S
V70     V76    10.0   1_654     S
V70     V75    10.0   1_654     S
V71     V26    10.0   1_554     S
V71     V25    10.0   1_554     S
V71     V55    10.0   1_554     S
V71     V72    10.0   .     S
V71     V91    10.0   .     S
V72     V26    10.0   1_554     S
V72     V65    10.0   1_554     S
V72     V68    10.0   1_554     S
V73     V54    10.0   1_455     S
V73     V53    10.0   1_455     S
V73     V76    10.0   .     S
V73     V74    10.0   .     S
V73     V79    10.0   1_455     S
V74     V66    10.0   1_455     S
V74     V75    10.0   .     S
V74     V79    10.0   1_455     S
V74     V80    10.0   1_455     S
V75     V29    10.0   1_556     S
V75     V66    10.0   1_455     S
V75     V65    10.0   1_455     S
V75     V70    10.0   1_456     S
V75     V76    10.0   .     S
V76     V29    10.0   1_556     S
V76     V30    10.0   1_556     S
V76     V54    10.0   1_455     S
V76     V70    10.0   1_456     S
V76     V69    10.0   1_456     S
V77     V90    10.0   .     S
V77     V92    10.0   .     S
V77     V79    10.0   .     S
V77     V78    10.0   .     S
V78     V80    10.0   .     S
V79     V90    10.0   .     S
V79     V74    10.0   1_655     S
V79     V73    10.0   1_655     S
V79     V80    10.0   .     S
V79     V96    10.0   1_655     S
V79     V93    10.0   1_655     S
V80     V74    10.0   1_655     S
V80     V96    10.0   1_655     S
V81     V12    10.0   1_455     S
V81     V84    10.0   .     S
V81     V82    10.0   .     S
V81     V85    10.0   1_455     S
V81     V86    10.0   1_455     S
V82     V12    10.0   1_455     S
V82     V11    10.0   1_455     S
V82     V63    10.0   1_455     S
V82     V83    10.0   .     S
V83     V41    10.0   1_565     S
V83     V63    10.0   1_455     S
V83     V61    10.0   1_455     S
V83     V89    10.0   1_465     S
V83     V84    10.0   .     S
V84     V41    10.0   1_565     S
V84     V42    10.0   1_565     S
V84     V89    10.0   1_465     S
V84     V90    10.0   1_465     S
V84     V85    10.0   1_455     S
V85     V81    10.0   1_655     S
V85     V84    10.0   1_655     S
V85     V53    10.0   1_565     S
V85     V59    10.0   1_655     S
V85     V58    10.0   1_655     S
V85     V86    10.0   .     S
V85     V88    10.0   .     S
V85     V90    10.0   1_565     S
V86     V81    10.0   1_655     S
V86     V59    10.0   1_655     S
V86     V87    10.0   .     S
V87     V88    10.0   .     S
V88     V53    10.0   1_565     S
V88     V56    10.0   1_565     S
V88     V90    10.0   1_565     S
V88     V92    10.0   1_565     S
V89     V61    10.0   1_545     S
V89     V84    10.0   1_645     S
V89     V83    10.0   1_645     S
V89     V90    10.0   .     S
V89     V91    10.0   .     S
V89     V93    10.0   1_655     S
V89     V95    10.0   1_655     S
V90     V84    10.0   1_645     S
V90     V88    10.0   1_545     S
V90     V85    10.0   1_545     S
V90     V92    10.0   .     S
V90     V93    10.0   1_655     S
V91     V13    10.0   1_545     S
V91     V61    10.0   1_545     S
V91     V62    10.0   1_545     S
V91     V92    10.0   .     S
V92     V13    10.0   1_545     S
V92     V14    10.0   1_545     S
V92     V88    10.0   1_545     S
V93     V79    10.0   1_455     S
V93     V89    10.0   1_455     S
V93     V90    10.0   1_455     S
V93     V96    10.0   .     S
V93     V95    10.0   .     S
V94     V12    10.0   1_455     S
V94     V11    10.0   1_455     S
V94     V70    10.0   1_455     S
V94     V96    10.0   .     S
V94     V95    10.0   .     S
V95     V70    10.0   1_455     S
V95     V69    10.0   1_455     S
V95     V89    10.0   1_455     S
V96     V12    10.0   1_455     S
V96     V79    10.0   1_455     S
V96     V80    10.0   1_455     S
