data_nsp
_audit_creation_date              2020-02-04
_audit_creation_method            'Pymatgen'
_symmetry_space_group_name_H-M    'P1'
_symmetry_Int_Tables_number       1
loop_
_symmetry_equiv_pos_as_xyz
  x,y,z
_cell_length_a                    18.731
_cell_length_b                    18.731
_cell_length_c                    38.3435
_cell_angle_alpha                 90.0
_cell_angle_beta                 90.0
_cell_angle_gamma                 120.0
loop_
_atom_site_label
_atom_site_type_symbol
_atom_site_fract_x
_atom_site_fract_y
_atom_site_fract_z
V1     V     0.9382   0.3764   0.2053
V2     V     0.4382   0.3764   0.2947
V3     V     0.4382   0.0618   0.872
V4     V     0.9382   0.5618   0.9613
V5     V     0.6236   0.5618   0.5387
V6     V     0.6236   0.0618   0.628
V7     V     0.0618   0.6236   0.7053
V8     V     0.5618   0.6236   0.7947
V9     V     0.3764   0.4382   0.0387
V10     V     0.3764   0.9382   0.128
V11     V     0.5618   0.9382   0.372
V12     V     0.0618   0.4382   0.4613
loop_
_geom_bond_atom_site_label_1
_geom_bond_atom_site_label_2
_geom_bond_distance
_geom_bond_site_symmetry_2
_ccdc_geom_bond_type
V1     V2    9.971   .     S
V1     V2    9.973   1_655     S
V1     V4    9.981   1_554     S
V1     V10    10.026   1_655     S
V1     V9    10.002   1_655     S
V1     V10    10.026   1_545     S
V1     V11    10.002   1_545     S
V1     V12    10.018   1_655     S
V2     V1    9.973   1_455     S
V2     V5    9.981   .     S
V2     V10    10.002   1_545     S
V2     V9    10.018   .     S
V2     V11    10.026   1_545     S
V2     V11    10.026   .     S
V2     V12    10.002   .     S
V3     V4    9.971   .     S
V3     V4    9.973   1_445     S
V3     V6    9.981   .     S
V3     V8    10.026   1_545     S
V3     V7    10.002   1_545     S
V3     V8    10.026   .     S
V3     V10    10.018   1_546     S
V3     V9    10.002   1_556     S
V4     V1    9.981   1_556     S
V4     V3    9.973   1_665     S
V4     V8    10.002   .     S
V4     V7    10.018   1_655     S
V4     V9    10.026   1_656     S
V4     V10    10.002   1_656     S
V4     V9    10.026   1_556     S
V5     V6    9.971   .     S
V5     V6    9.973   1_565     S
V5     V7    10.002   1_655     S
V5     V8    10.018   .     S
V5     V12    10.026   .     S
V5     V11    10.002   .     S
V5     V12    10.026   1_655     S
V6     V5    9.973   1_545     S
V6     V7    10.026   1_655     S
V6     V7    10.026   1_545     S
V6     V8    10.002   1_545     S
V6     V12    10.002   1_655     S
V6     V11    10.018   1_545     S
V7     V8    9.971   .     S
V7     V8    9.973   1_455     S
V7     V12    9.981   .     S
V7     V6    10.026   1_455     S
V7     V5    10.002   1_455     S
V7     V6    10.026   1_565     S
V7     V3    10.002   1_565     S
V7     V4    10.018   1_455     S
V8     V7    9.973   1_655     S
V8     V9    9.981   1_556     S
V8     V6    10.002   1_565     S
V8     V3    10.026   1_565     S
V9     V10    9.971   .     S
V9     V10    9.973   1_545     S
V9     V8    9.981   1_554     S
V9     V4    10.026   1_454     S
V9     V4    10.026   1_554     S
V9     V3    10.002   1_554     S
V9     V1    10.002   1_455     S
V10     V9    9.973   1_565     S
V10     V11    9.981   .     S
V10     V4    10.002   1_454     S
V10     V3    10.018   1_564     S
V10     V1    10.026   1_455     S
V10     V1    10.026   1_565     S
V10     V2    10.002   1_565     S
V11     V12    9.971   .     S
V11     V12    9.973   1_665     S
V11     V6    10.018   1_565     S
V11     V2    10.026   1_565     S
V11     V1    10.002   1_565     S
V12     V11    9.973   1_445     S
V12     V5    10.026   1_455     S
V12     V6    10.002   1_455     S
V12     V1    10.018   1_455     S
