data_ntsa
_audit_creation_date              2020-02-04
_audit_creation_method            'Pymatgen'
_symmetry_space_group_name_H-M    'P1'
_symmetry_Int_Tables_number       1
loop_
_symmetry_equiv_pos_as_xyz
  x,y,z
_cell_length_a                    125.5587
_cell_length_b                    125.5587
_cell_length_c                    125.5587
_cell_angle_alpha                 90.0
_cell_angle_beta                 90.0
_cell_angle_gamma                 90.0
loop_
_atom_site_label
_atom_site_type_symbol
_atom_site_fract_x
_atom_site_fract_y
_atom_site_fract_z
V1     V     0.6611   0.6047   0.7174
V2     V     0.6047   0.6611   0.7174
V3     V     0.7174   0.6047   0.6611
V4     V     0.7174   0.6611   0.6047
V5     V     0.6611   0.7174   0.6047
V6     V     0.6047   0.7174   0.6611
V7     V     0.6611   0.8953   0.7826
V8     V     0.6047   0.8389   0.7826
V9     V     0.7174   0.8953   0.8389
V10     V     0.7174   0.8389   0.8953
V11     V     0.6611   0.7826   0.8953
V12     V     0.6047   0.7826   0.8389
V13     V     0.7826   0.6611   0.8953
V14     V     0.7826   0.6047   0.8389
V15     V     0.8953   0.7174   0.8389
V16     V     0.8389   0.7174   0.8953
V17     V     0.8953   0.6611   0.7826
V18     V     0.8389   0.6047   0.7826
V19     V     0.8953   0.7826   0.6611
V20     V     0.8389   0.7826   0.6047
V21     V     0.8389   0.8953   0.7174
V22     V     0.8953   0.8389   0.7174
V23     V     0.7826   0.8953   0.6611
V24     V     0.7826   0.8389   0.6047
Er25     Er     0.7501   0.6938   0.0398
Er26     Er     0.7501   0.6938   0.9602
Er27     Er     0.6938   0.7501   0.0398
Er28     Er     0.6938   0.7501   0.9602
Er29     Er     0.6938   0.0398   0.7501
Er30     Er     0.6938   0.9602   0.7501
Er31     Er     0.7501   0.0398   0.6938
Er32     Er     0.7501   0.9602   0.6938
Er33     Er     0.0398   0.7501   0.6938
Er34     Er     0.9602   0.7501   0.6938
Er35     Er     0.0398   0.6938   0.7501
Er36     Er     0.9602   0.6938   0.7501
Er37     Er     0.7499   0.8062   0.0398
Er38     Er     0.7499   0.8062   0.9602
Er39     Er     0.8062   0.7499   0.0398
Er40     Er     0.8062   0.7499   0.9602
Er41     Er     0.8062   0.0398   0.7499
Er42     Er     0.8062   0.9602   0.7499
Er43     Er     0.7499   0.0398   0.8062
Er44     Er     0.7499   0.9602   0.8062
Er45     Er     0.0398   0.7499   0.8062
Er46     Er     0.9602   0.7499   0.8062
Er47     Er     0.0398   0.8062   0.7499
Er48     Er     0.9602   0.8062   0.7499
Er49     Er     0.2499   0.3062   0.0398
Er50     Er     0.2499   0.3062   0.9602
Er51     Er     0.3062   0.2499   0.0398
Er52     Er     0.3062   0.2499   0.9602
Er53     Er     0.3062   0.0398   0.2499
Er54     Er     0.3062   0.9602   0.2499
Er55     Er     0.2499   0.0398   0.3062
Er56     Er     0.2499   0.9602   0.3062
Er57     Er     0.0398   0.2499   0.3062
Er58     Er     0.9602   0.2499   0.3062
Er59     Er     0.0398   0.3062   0.2499
Er60     Er     0.9602   0.3062   0.2499
Er61     Er     0.6938   0.4602   0.7499
Er62     Er     0.6938   0.5398   0.7499
Er63     Er     0.7501   0.4602   0.8062
Er64     Er     0.7501   0.5398   0.8062
V65     V     0.6611   0.3953   0.7174
V66     V     0.6047   0.3389   0.7174
V67     V     0.7174   0.3389   0.6047
V68     V     0.7174   0.3953   0.6611
V69     V     0.6611   0.2826   0.6047
V70     V     0.6047   0.2826   0.6611
Er71     Er     0.7499   0.4602   0.6938
Er72     Er     0.7499   0.5398   0.6938
Er73     Er     0.8062   0.4602   0.7501
Er74     Er     0.8062   0.5398   0.7501
V75     V     0.8953   0.3389   0.7826
V76     V     0.8389   0.3953   0.7826
V77     V     0.8953   0.2826   0.8389
V78     V     0.8389   0.2826   0.8953
V79     V     0.7826   0.3389   0.8953
V80     V     0.7826   0.3953   0.8389
Er81     Er     0.4602   0.6938   0.7499
Er82     Er     0.5398   0.6938   0.7499
Er83     Er     0.4602   0.7501   0.8062
Er84     Er     0.5398   0.7501   0.8062
V85     V     0.3953   0.6611   0.7174
V86     V     0.3389   0.6047   0.7174
V87     V     0.2826   0.6611   0.6047
V88     V     0.2826   0.6047   0.6611
V89     V     0.3389   0.7174   0.6047
V90     V     0.3953   0.7174   0.6611
Er91     Er     0.4602   0.7499   0.6938
Er92     Er     0.5398   0.7499   0.6938
Er93     Er     0.4602   0.8062   0.7501
Er94     Er     0.5398   0.8062   0.7501
V95     V     0.3389   0.7826   0.8953
V96     V     0.3953   0.7826   0.8389
V97     V     0.2826   0.8953   0.8389
V98     V     0.2826   0.8389   0.8953
V99     V     0.3389   0.8953   0.7826
V100     V     0.3953   0.8389   0.7826
Er101     Er     0.6938   0.7499   0.4602
Er102     Er     0.6938   0.7499   0.5398
Er103     Er     0.7501   0.8062   0.4602
Er104     Er     0.7501   0.8062   0.5398
V105     V     0.6047   0.7174   0.3389
V106     V     0.6611   0.7174   0.3953
V107     V     0.7174   0.6047   0.3389
V108     V     0.7174   0.6611   0.3953
V109     V     0.6611   0.6047   0.2826
V110     V     0.6047   0.6611   0.2826
Er111     Er     0.7499   0.6938   0.4602
Er112     Er     0.7499   0.6938   0.5398
Er113     Er     0.8062   0.7501   0.4602
Er114     Er     0.8062   0.7501   0.5398
V115     V     0.7826   0.8953   0.3389
V116     V     0.7826   0.8389   0.3953
V117     V     0.8953   0.8389   0.2826
V118     V     0.8389   0.8953   0.2826
V119     V     0.8953   0.7826   0.3389
V120     V     0.8389   0.7826   0.3953
Er121     Er     0.2499   0.6938   0.0398
Er122     Er     0.2499   0.6938   0.9602
Er123     Er     0.3062   0.7501   0.0398
Er124     Er     0.3062   0.7501   0.9602
Er125     Er     0.6938   0.2499   0.0398
Er126     Er     0.6938   0.2499   0.9602
Er127     Er     0.7501   0.3062   0.0398
Er128     Er     0.7501   0.3062   0.9602
V129     V     0.7826   0.6611   0.1047
V130     V     0.7826   0.6047   0.1611
V131     V     0.8389   0.7174   0.1047
V132     V     0.8953   0.7174   0.1611
V133     V     0.8953   0.6611   0.2174
V134     V     0.8389   0.6047   0.2174
V135     V     0.1047   0.6611   0.7826
V136     V     0.1611   0.6047   0.7826
V137     V     0.2174   0.6611   0.8953
V138     V     0.2174   0.6047   0.8389
V139     V     0.1047   0.7174   0.8389
V140     V     0.1611   0.7174   0.8953
Er141     Er     0.0398   0.8062   0.2501
Er142     Er     0.9602   0.8062   0.2501
Er143     Er     0.0398   0.7499   0.1938
Er144     Er     0.9602   0.7499   0.1938
Er145     Er     0.1938   0.7499   0.0398
Er146     Er     0.1938   0.7499   0.9602
Er147     Er     0.2501   0.8062   0.0398
Er148     Er     0.2501   0.8062   0.9602
V149     V     0.2174   0.6611   0.1047
V150     V     0.1047   0.6611   0.2174
V151     V     0.1611   0.6047   0.2174
V152     V     0.2174   0.6047   0.1611
V153     V     0.1611   0.7174   0.1047
V154     V     0.1047   0.7174   0.1611
V155     V     0.1047   0.7826   0.6611
V156     V     0.1611   0.7826   0.6047
V157     V     0.2174   0.8953   0.6611
V158     V     0.2174   0.8389   0.6047
V159     V     0.1047   0.8389   0.7174
V160     V     0.1611   0.8953   0.7174
V161     V     0.7826   0.1047   0.6611
V162     V     0.7826   0.1611   0.6047
V163     V     0.8389   0.1047   0.7174
V164     V     0.8953   0.1611   0.7174
V165     V     0.8953   0.2174   0.6611
V166     V     0.8389   0.2174   0.6047
Er167     Er     0.2501   0.0398   0.8062
Er168     Er     0.2501   0.9602   0.8062
Er169     Er     0.1938   0.0398   0.7499
Er170     Er     0.1938   0.9602   0.7499
Er171     Er     0.0398   0.1938   0.7499
Er172     Er     0.9602   0.1938   0.7499
Er173     Er     0.0398   0.2501   0.8062
Er174     Er     0.9602   0.2501   0.8062
V175     V     0.1047   0.2174   0.6611
V176     V     0.2174   0.1047   0.6611
V177     V     0.2174   0.1611   0.6047
V178     V     0.1611   0.2174   0.6047
V179     V     0.1047   0.1611   0.7174
V180     V     0.1611   0.1047   0.7174
V181     V     0.6611   0.1047   0.7826
V182     V     0.6047   0.1611   0.7826
V183     V     0.6611   0.2174   0.8953
V184     V     0.6047   0.2174   0.8389
V185     V     0.7174   0.1047   0.8389
V186     V     0.7174   0.1611   0.8953
V187     V     0.6611   0.7826   0.1047
V188     V     0.6047   0.7826   0.1611
V189     V     0.7174   0.8389   0.1047
V190     V     0.7174   0.8953   0.1611
V191     V     0.6611   0.8953   0.2174
V192     V     0.6047   0.8389   0.2174
Er193     Er     0.8062   0.2501   0.0398
Er194     Er     0.8062   0.2501   0.9602
Er195     Er     0.7499   0.1938   0.0398
Er196     Er     0.7499   0.1938   0.9602
Er197     Er     0.7499   0.0398   0.1938
Er198     Er     0.7499   0.9602   0.1938
Er199     Er     0.8062   0.0398   0.2501
Er200     Er     0.8062   0.9602   0.2501
V201     V     0.6611   0.1047   0.2174
V202     V     0.6611   0.2174   0.1047
V203     V     0.6047   0.2174   0.1611
V204     V     0.6047   0.1611   0.2174
V205     V     0.7174   0.1047   0.1611
V206     V     0.7174   0.1611   0.1047
Er207     Er     0.6938   0.0398   0.2499
Er208     Er     0.6938   0.9602   0.2499
Er209     Er     0.7501   0.0398   0.3062
Er210     Er     0.7501   0.9602   0.3062
Er211     Er     0.2499   0.0398   0.6938
Er212     Er     0.2499   0.9602   0.6938
Er213     Er     0.3062   0.0398   0.7501
Er214     Er     0.3062   0.9602   0.7501
Er215     Er     0.0398   0.2499   0.6938
Er216     Er     0.9602   0.2499   0.6938
Er217     Er     0.0398   0.3062   0.7501
Er218     Er     0.9602   0.3062   0.7501
Er219     Er     0.0398   0.6938   0.2499
Er220     Er     0.9602   0.6938   0.2499
Er221     Er     0.0398   0.7501   0.3062
Er222     Er     0.9602   0.7501   0.3062
Er223     Er     0.2501   0.4602   0.6938
Er224     Er     0.2501   0.5398   0.6938
Er225     Er     0.1938   0.4602   0.7501
Er226     Er     0.1938   0.5398   0.7501
V227     V     0.1047   0.2826   0.8389
V228     V     0.1611   0.2826   0.8953
V229     V     0.2174   0.3389   0.8953
V230     V     0.2174   0.3953   0.8389
V231     V     0.1611   0.3953   0.7826
V232     V     0.1047   0.3389   0.7826
Er233     Er     0.4602   0.2501   0.6938
Er234     Er     0.5398   0.2501   0.6938
Er235     Er     0.4602   0.1938   0.7501
Er236     Er     0.5398   0.1938   0.7501
V237     V     0.2826   0.1047   0.8389
V238     V     0.2826   0.1611   0.8953
V239     V     0.3389   0.2174   0.8953
V240     V     0.3953   0.2174   0.8389
V241     V     0.3953   0.1611   0.7826
V242     V     0.3389   0.1047   0.7826
Er243     Er     0.4602   0.2499   0.8062
Er244     Er     0.5398   0.2499   0.8062
Er245     Er     0.4602   0.3062   0.7499
Er246     Er     0.5398   0.3062   0.7499
Er247     Er     0.2499   0.4602   0.8062
Er248     Er     0.2499   0.5398   0.8062
Er249     Er     0.3062   0.4602   0.7499
Er250     Er     0.3062   0.5398   0.7499
V251     V     0.3953   0.3389   0.7174
V252     V     0.3389   0.3953   0.7174
V253     V     0.2826   0.3389   0.6047
V254     V     0.2826   0.3953   0.6611
V255     V     0.3389   0.2826   0.6047
V256     V     0.3953   0.2826   0.6611
Er257     Er     0.6938   0.2501   0.4602
Er258     Er     0.6938   0.2501   0.5398
Er259     Er     0.7501   0.1938   0.4602
Er260     Er     0.7501   0.1938   0.5398
V261     V     0.8389   0.1047   0.2826
V262     V     0.8953   0.1611   0.2826
V263     V     0.8953   0.2174   0.3389
V264     V     0.8389   0.2174   0.3953
V265     V     0.7826   0.1611   0.3953
V266     V     0.7826   0.1047   0.3389
Er267     Er     0.8062   0.2499   0.4602
Er268     Er     0.8062   0.2499   0.5398
Er269     Er     0.7499   0.3062   0.4602
Er270     Er     0.7499   0.3062   0.5398
Er271     Er     0.6938   0.4602   0.2501
Er272     Er     0.6938   0.5398   0.2501
Er273     Er     0.7501   0.4602   0.1938
Er274     Er     0.7501   0.5398   0.1938
V275     V     0.8389   0.2826   0.1047
V276     V     0.8953   0.2826   0.1611
V277     V     0.8953   0.3389   0.2174
V278     V     0.8389   0.3953   0.2174
V279     V     0.7826   0.3953   0.1611
V280     V     0.7826   0.3389   0.1047
Er281     Er     0.8062   0.4602   0.2499
Er282     Er     0.8062   0.5398   0.2499
Er283     Er     0.7499   0.4602   0.3062
Er284     Er     0.7499   0.5398   0.3062
V285     V     0.6047   0.2826   0.3389
V286     V     0.6611   0.2826   0.3953
V287     V     0.6047   0.3389   0.2826
V288     V     0.6611   0.3953   0.2826
V289     V     0.7174   0.3953   0.3389
V290     V     0.7174   0.3389   0.3953
Er291     Er     0.2499   0.1938   0.4602
Er292     Er     0.2499   0.1938   0.5398
Er293     Er     0.3062   0.2501   0.4602
Er294     Er     0.3062   0.2501   0.5398
Er295     Er     0.2501   0.3062   0.4602
Er296     Er     0.2501   0.3062   0.5398
Er297     Er     0.1938   0.2499   0.4602
Er298     Er     0.1938   0.2499   0.5398
Er299     Er     0.2499   0.4602   0.1938
Er300     Er     0.2499   0.5398   0.1938
Er301     Er     0.3062   0.4602   0.2501
Er302     Er     0.3062   0.5398   0.2501
Er303     Er     0.4602   0.2499   0.1938
Er304     Er     0.5398   0.2499   0.1938
Er305     Er     0.4602   0.3062   0.2501
Er306     Er     0.5398   0.3062   0.2501
Er307     Er     0.4602   0.1938   0.2499
Er308     Er     0.5398   0.1938   0.2499
Er309     Er     0.4602   0.2501   0.3062
Er310     Er     0.5398   0.2501   0.3062
Er311     Er     0.1938   0.4602   0.2499
Er312     Er     0.1938   0.5398   0.2499
Er313     Er     0.2501   0.4602   0.3062
Er314     Er     0.2501   0.5398   0.3062
V315     V     0.3389   0.2826   0.3953
V316     V     0.3953   0.2826   0.3389
V317     V     0.3389   0.3953   0.2826
V318     V     0.3953   0.3389   0.2826
V319     V     0.2826   0.3389   0.3953
V320     V     0.2826   0.3953   0.3389
Er321     Er     0.1938   0.0398   0.2501
Er322     Er     0.1938   0.9602   0.2501
Er323     Er     0.2501   0.0398   0.1938
Er324     Er     0.2501   0.9602   0.1938
V325     V     0.3953   0.1611   0.2174
V326     V     0.3953   0.2174   0.1611
V327     V     0.3389   0.2174   0.1047
V328     V     0.3389   0.1047   0.2174
V329     V     0.2826   0.1611   0.1047
V330     V     0.2826   0.1047   0.1611
Er331     Er     0.2501   0.1938   0.0398
Er332     Er     0.2501   0.1938   0.9602
Er333     Er     0.1938   0.2501   0.0398
Er334     Er     0.1938   0.2501   0.9602
V335     V     0.1611   0.3953   0.2174
V336     V     0.2174   0.3953   0.1611
V337     V     0.1047   0.3389   0.2174
V338     V     0.2174   0.3389   0.1047
V339     V     0.1047   0.2826   0.1611
V340     V     0.1611   0.2826   0.1047
Er341     Er     0.0398   0.2501   0.1938
Er342     Er     0.9602   0.2501   0.1938
Er343     Er     0.0398   0.1938   0.2501
Er344     Er     0.9602   0.1938   0.2501
V345     V     0.1611   0.2174   0.3953
V346     V     0.2174   0.1611   0.3953
V347     V     0.2174   0.1047   0.3389
V348     V     0.1047   0.2174   0.3389
V349     V     0.1047   0.1611   0.2826
V350     V     0.1611   0.1047   0.2826
Er351     Er     0.4602   0.6938   0.2501
Er352     Er     0.5398   0.6938   0.2501
Er353     Er     0.4602   0.7501   0.1938
Er354     Er     0.5398   0.7501   0.1938
V355     V     0.2826   0.8389   0.1047
V356     V     0.2826   0.8953   0.1611
V357     V     0.3389   0.8953   0.2174
V358     V     0.3953   0.8389   0.2174
V359     V     0.3953   0.7826   0.1611
V360     V     0.3389   0.7826   0.1047
Er361     Er     0.2499   0.8062   0.4602
Er362     Er     0.2499   0.8062   0.5398
Er363     Er     0.3062   0.7499   0.4602
Er364     Er     0.3062   0.7499   0.5398
Er365     Er     0.2501   0.6938   0.4602
Er366     Er     0.2501   0.6938   0.5398
Er367     Er     0.1938   0.7501   0.4602
Er368     Er     0.1938   0.7501   0.5398
V369     V     0.1047   0.8389   0.2826
V370     V     0.1611   0.8953   0.2826
V371     V     0.2174   0.8953   0.3389
V372     V     0.2174   0.8389   0.3953
V373     V     0.1611   0.7826   0.3953
V374     V     0.1047   0.7826   0.3389
Er375     Er     0.4602   0.8062   0.2499
Er376     Er     0.5398   0.8062   0.2499
Er377     Er     0.4602   0.7499   0.3062
Er378     Er     0.5398   0.7499   0.3062
V379     V     0.3389   0.7174   0.3953
V380     V     0.3953   0.7174   0.3389
V381     V     0.3389   0.6047   0.2826
V382     V     0.3953   0.6611   0.2826
V383     V     0.2826   0.6047   0.3389
V384     V     0.2826   0.6611   0.3953
loop_
_geom_bond_atom_site_label_1
_geom_bond_atom_site_label_2
_geom_bond_distance
_geom_bond_site_symmetry_2
_ccdc_geom_bond_type
V1     V3    10.001   .     S
V1     V2    10.001   .     S
V1     Er62    10.0   .     S
V2     V6    10.001   .     S
V2     Er82    10.0   .     S
V3     V4    10.001   .     S
V3     Er72    10.0   .     S
V4     V5    10.001   .     S
V4     Er112    10.0   .     S
V5     V6    10.001   .     S
V5     Er102    10.0   .     S
V6     Er92    10.0   .     S
V7     V8    10.001   .     S
V7     V9    10.001   .     S
V7     Er30    10.0   .     S
V8     V12    10.001   .     S
V8     Er94    10.0   .     S
V9     V10    10.001   .     S
V9     Er44    10.0   .     S
V10     V11    10.001   .     S
V10     Er38    10.0   .     S
V11     V12    10.001   .     S
V11     Er28    10.0   .     S
V12     Er84    10.0   .     S
V13     V14    10.001   .     S
V13     V16    10.001   .     S
V13     Er26    10.0   .     S
V14     V18    10.001   .     S
V14     Er64    10.0   .     S
V15     V16    10.001   .     S
V15     V17    10.001   .     S
V15     Er46    10.0   .     S
V16     Er40    10.0   .     S
V17     V18    10.001   .     S
V17     Er36    10.0   .     S
V18     Er74    10.0   .     S
V19     V20    10.001   .     S
V19     V22    10.001   .     S
V19     Er34    10.0   .     S
V20     V24    10.001   .     S
V20     Er114    10.0   .     S
V21     V22    10.001   .     S
V21     V23    10.001   .     S
V21     Er42    10.0   .     S
V22     Er48    10.0   .     S
V23     V24    10.001   .     S
V23     Er32    10.0   .     S
V24     Er104    10.0   .     S
Er25     V129    10.0   .     S
Er25     Er26    9.999   1_554     S
Er25     Er27    10.001   .     S
Er26     Er25    9.999   1_556     S
Er26     Er28    10.001   .     S
Er27     V187    10.0   .     S
Er27     Er28    9.999   1_554     S
Er28     Er27    9.999   1_556     S
Er29     V181    10.0   .     S
Er29     Er30    9.999   1_545     S
Er29     Er31    10.001   .     S
Er30     Er29    9.999   1_565     S
Er30     Er32    10.001   .     S
Er31     V161    10.0   .     S
Er31     Er32    9.999   1_545     S
Er32     Er31    9.999   1_565     S
Er33     V155    10.0   .     S
Er33     Er34    9.999   1_455     S
Er33     Er35    10.001   .     S
Er34     Er33    9.999   1_655     S
Er34     Er36    10.001   .     S
Er35     V135    10.0   .     S
Er35     Er36    9.999   1_455     S
Er36     Er35    9.999   1_655     S
Er37     V189    10.0   .     S
Er37     Er38    9.999   1_554     S
Er37     Er39    10.001   .     S
Er38     Er37    9.999   1_556     S
Er38     Er40    10.001   .     S
Er39     V131    10.0   .     S
Er39     Er40    9.999   1_554     S
Er40     Er39    9.999   1_556     S
Er41     V163    10.0   .     S
Er41     Er42    9.999   1_545     S
Er41     Er43    10.001   .     S
Er42     Er41    9.999   1_565     S
Er42     Er44    10.001   .     S
Er43     V185    10.0   .     S
Er43     Er44    9.999   1_545     S
Er44     Er43    9.999   1_565     S
Er45     V139    10.0   .     S
Er45     Er46    9.999   1_455     S
Er45     Er47    10.001   .     S
Er46     Er45    9.999   1_655     S
Er46     Er48    10.001   .     S
Er47     V159    10.0   .     S
Er47     Er48    9.999   1_455     S
Er48     Er47    9.999   1_655     S
Er49     V338    10.0   .     S
Er49     Er50    9.999   1_554     S
Er49     Er51    10.001   .     S
Er50     V229    10.0   .     S
Er50     Er49    9.999   1_556     S
Er50     Er52    10.001   .     S
Er51     V327    10.0   .     S
Er51     Er52    9.999   1_554     S
Er52     V239    10.0   .     S
Er52     Er51    9.999   1_556     S
Er53     V328    10.0   .     S
Er53     Er54    9.999   1_545     S
Er53     Er55    10.001   .     S
Er54     V357    10.0   .     S
Er54     Er53    9.999   1_565     S
Er54     Er56    10.001   .     S
Er55     V347    10.0   .     S
Er55     Er56    9.999   1_545     S
Er56     V371    10.0   .     S
Er56     Er55    9.999   1_565     S
Er57     V348    10.0   .     S
Er57     Er58    9.999   1_455     S
Er57     Er59    10.001   .     S
Er58     V263    10.0   .     S
Er58     Er57    9.999   1_655     S
Er58     Er60    10.001   .     S
Er59     V337    10.0   .     S
Er59     Er60    9.999   1_455     S
Er60     V277    10.0   .     S
Er60     Er59    9.999   1_655     S
Er61     V65    10.0   .     S
Er61     Er62    9.999   .     S
Er61     Er63    10.001   .     S
Er62     Er64    10.001   .     S
Er63     V80    10.0   .     S
Er63     Er64    9.999   .     S
V65     V68    10.001   .     S
V65     V66    10.001   .     S
V66     V70    10.001   .     S
V66     Er246    10.0   .     S
V67     V68    10.001   .     S
V67     V69    10.001   .     S
V67     Er270    10.0   .     S
V68     Er71    10.0   .     S
V69     V70    10.001   .     S
V69     Er258    10.0   .     S
V70     Er234    10.0   .     S
Er71     Er72    9.999   .     S
Er71     Er73    10.001   .     S
Er72     Er74    10.001   .     S
Er73     V76    10.0   .     S
Er73     Er74    9.999   .     S
V75     V76    10.001   .     S
V75     V77    10.001   .     S
V75     Er218    10.0   .     S
V76     V80    10.001   .     S
V77     V78    10.001   .     S
V77     Er174    10.0   .     S
V78     V79    10.001   .     S
V78     Er194    10.0   .     S
V79     V80    10.001   .     S
V79     Er128    10.0   .     S
Er81     V85    10.0   .     S
Er81     Er82    9.999   .     S
Er81     Er83    10.001   .     S
Er82     Er84    10.001   .     S
Er83     V96    10.0   .     S
Er83     Er84    9.999   .     S
V85     V90    10.001   .     S
V85     V86    10.001   .     S
V86     V88    10.001   .     S
V86     Er250    10.0   .     S
V87     V88    10.001   .     S
V87     V89    10.001   .     S
V87     Er366    10.0   .     S
V88     Er224    10.0   .     S
V89     V90    10.001   .     S
V89     Er364    10.0   .     S
V90     Er91    10.0   .     S
Er91     Er92    9.999   .     S
Er91     Er93    10.001   .     S
Er92     Er94    10.001   .     S
Er93     V100    10.0   .     S
Er93     Er94    9.999   .     S
V95     V96    10.001   .     S
V95     V98    10.001   .     S
V95     Er124    10.0   .     S
V96     V100    10.001   .     S
V97     V98    10.001   .     S
V97     V99    10.001   .     S
V97     Er168    10.0   .     S
V98     Er148    10.0   .     S
V99     V100    10.001   .     S
V99     Er214    10.0   .     S
Er101     V106    10.0   .     S
Er101     Er102    9.999   .     S
Er101     Er103    10.001   .     S
Er102     Er104    10.001   .     S
Er103     V116    10.0   .     S
Er103     Er104    9.999   .     S
V105     V106    10.001   .     S
V105     V110    10.001   .     S
V105     Er378    10.0   .     S
V106     V108    10.001   .     S
V107     V108    10.001   .     S
V107     V109    10.001   .     S
V107     Er284    10.0   .     S
V108     Er111    10.0   .     S
V109     V110    10.001   .     S
V109     Er272    10.0   .     S
V110     Er352    10.0   .     S
Er111     Er112    9.999   .     S
Er111     Er113    10.001   .     S
Er112     Er114    10.001   .     S
Er113     V120    10.0   .     S
Er113     Er114    9.999   .     S
V115     V116    10.001   .     S
V115     V118    10.001   .     S
V115     Er210    10.0   .     S
V116     V120    10.001   .     S
V117     V118    10.001   .     S
V117     V119    10.001   .     S
V117     Er142    10.0   .     S
V118     Er200    10.0   .     S
V119     V120    10.001   .     S
V119     Er222    10.0   .     S
Er121     V149    10.0   .     S
Er121     Er122    9.999   1_554     S
Er121     Er123    10.001   .     S
Er122     V137    10.0   .     S
Er122     Er121    9.999   1_556     S
Er122     Er124    10.001   .     S
Er123     V360    10.0   .     S
Er123     Er124    9.999   1_554     S
Er124     Er123    9.999   1_556     S
Er125     V202    10.0   .     S
Er125     Er126    9.999   1_554     S
Er125     Er127    10.001   .     S
Er126     V183    10.0   .     S
Er126     Er125    9.999   1_556     S
Er126     Er128    10.001   .     S
Er127     V280    10.0   .     S
Er127     Er128    9.999   1_554     S
Er128     Er127    9.999   1_556     S
V129     V130    10.001   .     S
V129     V131    10.001   .     S
V130     V134    10.001   .     S
V130     Er274    10.0   .     S
V131     V132    10.001   .     S
V132     V133    10.001   .     S
V132     Er144    10.0   .     S
V133     V134    10.001   .     S
V133     Er220    10.0   .     S
V134     Er282    10.0   .     S
V135     V136    10.001   .     S
V135     V139    10.001   .     S
V136     V138    10.001   .     S
V136     Er226    10.0   .     S
V137     V138    10.001   .     S
V137     V140    10.001   .     S
V138     Er248    10.0   .     S
V139     V140    10.001   .     S
V140     Er146    10.0   .     S
Er141     V369    10.0   .     S
Er141     Er142    9.999   1_455     S
Er141     Er143    10.001   .     S
Er142     Er141    9.999   1_655     S
Er142     Er144    10.001   .     S
Er143     V154    10.0   .     S
Er143     Er144    9.999   1_455     S
Er144     Er143    9.999   1_655     S
Er145     V153    10.0   .     S
Er145     Er146    9.999   1_554     S
Er145     Er147    10.001   .     S
Er146     Er145    9.999   1_556     S
Er146     Er148    10.001   .     S
Er147     V355    10.0   .     S
Er147     Er148    9.999   1_554     S
Er148     Er147    9.999   1_556     S
V149     V153    10.001   .     S
V149     V152    10.001   .     S
V150     V154    10.001   .     S
V150     V151    10.001   .     S
V150     Er219    10.0   .     S
V151     V152    10.001   .     S
V151     Er312    10.0   .     S
V152     Er300    10.0   .     S
V153     V154    10.001   .     S
V155     V156    10.001   .     S
V155     V159    10.001   .     S
V156     V158    10.001   .     S
V156     Er368    10.0   .     S
V157     V158    10.001   .     S
V157     V160    10.001   .     S
V157     Er212    10.0   .     S
V158     Er362    10.0   .     S
V159     V160    10.001   .     S
V160     Er170    10.0   .     S
V161     V162    10.001   .     S
V161     V163    10.001   .     S
V162     V166    10.001   .     S
V162     Er260    10.0   .     S
V163     V164    10.001   .     S
V164     V165    10.001   .     S
V164     Er172    10.0   .     S
V165     V166    10.001   .     S
V165     Er216    10.0   .     S
V166     Er268    10.0   .     S
Er167     V237    10.0   .     S
Er167     Er168    9.999   1_545     S
Er167     Er169    10.001   .     S
Er168     Er167    9.999   1_565     S
Er168     Er170    10.001   .     S
Er169     V180    10.0   .     S
Er169     Er170    9.999   1_545     S
Er170     Er169    9.999   1_565     S
Er171     V179    10.0   .     S
Er171     Er172    9.999   1_455     S
Er171     Er173    10.001   .     S
Er172     Er171    9.999   1_655     S
Er172     Er174    10.001   .     S
Er173     V227    10.0   .     S
Er173     Er174    9.999   1_455     S
Er174     Er173    9.999   1_655     S
V175     V179    10.001   .     S
V175     V178    10.001   .     S
V175     Er215    10.0   .     S
V176     V180    10.001   .     S
V176     V177    10.001   .     S
V176     Er211    10.0   .     S
V177     V178    10.001   .     S
V177     Er292    10.0   .     S
V178     Er298    10.0   .     S
V179     V180    10.001   .     S
V181     V182    10.001   .     S
V181     V185    10.001   .     S
V182     V184    10.001   .     S
V182     Er236    10.0   .     S
V183     V184    10.001   .     S
V183     V186    10.001   .     S
V184     Er244    10.0   .     S
V185     V186    10.001   .     S
V186     Er196    10.0   .     S
V187     V188    10.001   .     S
V187     V189    10.001   .     S
V188     V192    10.001   .     S
V188     Er354    10.0   .     S
V189     V190    10.001   .     S
V190     V191    10.001   .     S
V190     Er198    10.0   .     S
V191     V192    10.001   .     S
V191     Er208    10.0   .     S
V192     Er376    10.0   .     S
Er193     V275    10.0   .     S
Er193     Er194    9.999   1_554     S
Er193     Er195    10.001   .     S
Er194     Er193    9.999   1_556     S
Er194     Er196    10.001   .     S
Er195     V206    10.0   .     S
Er195     Er196    9.999   1_554     S
Er196     Er195    9.999   1_556     S
Er197     V205    10.0   .     S
Er197     Er198    9.999   1_545     S
Er197     Er199    10.001   .     S
Er198     Er197    9.999   1_565     S
Er198     Er200    10.001   .     S
Er199     V261    10.0   .     S
Er199     Er200    9.999   1_545     S
Er200     Er199    9.999   1_565     S
V201     V205    10.001   .     S
V201     V204    10.001   .     S
V201     Er207    10.0   .     S
V202     V206    10.001   .     S
V202     V203    10.001   .     S
V203     V204    10.001   .     S
V203     Er304    10.0   .     S
V204     Er308    10.0   .     S
V205     V206    10.001   .     S
Er207     Er208    9.999   1_545     S
Er207     Er209    10.001   .     S
Er208     Er207    9.999   1_565     S
Er208     Er210    10.001   .     S
Er209     V266    10.0   .     S
Er209     Er210    9.999   1_545     S
Er210     Er209    9.999   1_565     S
Er211     Er212    9.999   1_545     S
Er211     Er213    10.001   .     S
Er212     Er211    9.999   1_565     S
Er212     Er214    10.001   .     S
Er213     V242    10.0   .     S
Er213     Er214    9.999   1_545     S
Er214     Er213    9.999   1_565     S
Er215     Er216    9.999   1_455     S
Er215     Er217    10.001   .     S
Er216     Er215    9.999   1_655     S
Er216     Er218    10.001   .     S
Er217     V232    10.0   .     S
Er217     Er218    9.999   1_455     S
Er218     Er217    9.999   1_655     S
Er219     Er220    9.999   1_455     S
Er219     Er221    10.001   .     S
Er220     Er219    9.999   1_655     S
Er220     Er222    10.001   .     S
Er221     V374    10.0   .     S
Er221     Er222    9.999   1_455     S
Er222     Er221    9.999   1_655     S
Er223     V254    10.0   .     S
Er223     Er224    9.999   .     S
Er223     Er225    10.001   .     S
Er224     Er226    10.001   .     S
Er225     V231    10.0   .     S
Er225     Er226    9.999   .     S
V227     V228    10.001   .     S
V227     V232    10.001   .     S
V228     V229    10.001   .     S
V228     Er334    10.0   .     S
V229     V230    10.001   .     S
V230     V231    10.001   .     S
V230     Er247    10.0   .     S
V231     V232    10.001   .     S
Er233     V256    10.0   .     S
Er233     Er234    9.999   .     S
Er233     Er235    10.001   .     S
Er234     Er236    10.001   .     S
Er235     V241    10.0   .     S
Er235     Er236    9.999   .     S
V237     V238    10.001   .     S
V237     V242    10.001   .     S
V238     V239    10.001   .     S
V238     Er332    10.0   .     S
V239     V240    10.001   .     S
V240     V241    10.001   .     S
V240     Er243    10.0   .     S
V241     V242    10.001   .     S
Er243     Er244    9.999   .     S
Er243     Er245    10.001   .     S
Er244     Er246    10.001   .     S
Er245     V251    10.0   .     S
Er245     Er246    9.999   .     S
Er247     Er248    9.999   .     S
Er247     Er249    10.001   .     S
Er248     Er250    10.001   .     S
Er249     V252    10.0   .     S
Er249     Er250    9.999   .     S
V251     V256    10.001   .     S
V251     V252    10.001   .     S
V252     V254    10.001   .     S
V253     V254    10.001   .     S
V253     V255    10.001   .     S
V253     Er296    10.0   .     S
V255     V256    10.001   .     S
V255     Er294    10.0   .     S
Er257     V286    10.0   .     S
Er257     Er258    9.999   .     S
Er257     Er259    10.001   .     S
Er258     Er260    10.001   .     S
Er259     V265    10.0   .     S
Er259     Er260    9.999   .     S
V261     V262    10.001   .     S
V261     V266    10.001   .     S
V262     V263    10.001   .     S
V262     Er344    10.0   .     S
V263     V264    10.001   .     S
V264     V265    10.001   .     S
V264     Er267    10.0   .     S
V265     V266    10.001   .     S
Er267     Er268    9.999   .     S
Er267     Er269    10.001   .     S
Er268     Er270    10.001   .     S
Er269     V290    10.0   .     S
Er269     Er270    9.999   .     S
Er271     V288    10.0   .     S
Er271     Er272    9.999   .     S
Er271     Er273    10.001   .     S
Er272     Er274    10.001   .     S
Er273     V279    10.0   .     S
Er273     Er274    9.999   .     S
V275     V276    10.001   .     S
V275     V280    10.001   .     S
V276     V277    10.001   .     S
V276     Er342    10.0   .     S
V277     V278    10.001   .     S
V278     V279    10.001   .     S
V278     Er281    10.0   .     S
V279     V280    10.001   .     S
Er281     Er282    9.999   .     S
Er281     Er283    10.001   .     S
Er282     Er284    10.001   .     S
Er283     V289    10.0   .     S
Er283     Er284    9.999   .     S
V285     V286    10.001   .     S
V285     V287    10.001   .     S
V285     Er310    10.0   .     S
V286     V290    10.001   .     S
V287     V288    10.001   .     S
V287     Er306    10.0   .     S
V288     V289    10.001   .     S
V289     V290    10.001   .     S
Er291     V346    10.0   .     S
Er291     Er292    9.999   .     S
Er291     Er293    10.001   .     S
Er292     Er294    10.001   .     S
Er293     V315    10.0   .     S
Er293     Er294    9.999   .     S
Er295     V319    10.0   .     S
Er295     Er296    9.999   .     S
Er295     Er297    10.001   .     S
Er296     Er298    10.001   .     S
Er297     V345    10.0   .     S
Er297     Er298    9.999   .     S
Er299     V336    10.0   .     S
Er299     Er300    9.999   .     S
Er299     Er301    10.001   .     S
Er300     Er302    10.001   .     S
Er301     V317    10.0   .     S
Er301     Er302    9.999   .     S
Er302     V381    10.0   .     S
Er303     V326    10.0   .     S
Er303     Er304    9.999   .     S
Er303     Er305    10.001   .     S
Er304     Er306    10.001   .     S
Er305     V318    10.0   .     S
Er305     Er306    9.999   .     S
Er307     V325    10.0   .     S
Er307     Er308    9.999   .     S
Er307     Er309    10.001   .     S
Er308     Er310    10.001   .     S
Er309     V316    10.0   .     S
Er309     Er310    9.999   .     S
Er311     V335    10.0   .     S
Er311     Er312    9.999   .     S
Er311     Er313    10.001   .     S
Er312     Er314    10.001   .     S
Er313     V320    10.0   .     S
Er313     Er314    9.999   .     S
Er314     V383    10.0   .     S
V315     V316    10.001   .     S
V315     V319    10.001   .     S
V316     V318    10.001   .     S
V317     V318    10.001   .     S
V317     V320    10.001   .     S
V319     V320    10.001   .     S
Er321     V350    10.0   .     S
Er321     Er322    9.999   1_545     S
Er321     Er323    10.001   .     S
Er322     V370    10.0   .     S
Er322     Er321    9.999   1_565     S
Er322     Er324    10.001   .     S
Er323     V330    10.0   .     S
Er323     Er324    9.999   1_545     S
Er324     V356    10.0   .     S
Er324     Er323    9.999   1_565     S
V325     V326    10.001   .     S
V325     V328    10.001   .     S
V326     V327    10.001   .     S
V327     V329    10.001   .     S
V328     V330    10.001   .     S
V329     V330    10.001   .     S
V329     Er331    10.0   .     S
Er331     Er332    9.999   1_554     S
Er331     Er333    10.001   .     S
Er332     Er331    9.999   1_556     S
Er332     Er334    10.001   .     S
Er333     V340    10.0   .     S
Er333     Er334    9.999   1_554     S
Er334     Er333    9.999   1_556     S
V335     V336    10.001   .     S
V335     V337    10.001   .     S
V336     V338    10.001   .     S
V337     V339    10.001   .     S
V338     V340    10.001   .     S
V339     V340    10.001   .     S
V339     Er341    10.0   .     S
Er341     Er342    9.999   1_455     S
Er341     Er343    10.001   .     S
Er342     Er341    9.999   1_655     S
Er342     Er344    10.001   .     S
Er343     V349    10.0   .     S
Er343     Er344    9.999   1_455     S
Er344     Er343    9.999   1_655     S
V345     V346    10.001   .     S
V345     V348    10.001   .     S
V346     V347    10.001   .     S
V347     V350    10.001   .     S
V348     V349    10.001   .     S
V349     V350    10.001   .     S
Er351     V382    10.0   .     S
Er351     Er352    9.999   .     S
Er351     Er353    10.001   .     S
Er352     Er354    10.001   .     S
Er353     V359    10.0   .     S
Er353     Er354    9.999   .     S
V355     V356    10.001   .     S
V355     V360    10.001   .     S
V356     V357    10.001   .     S
V357     V358    10.001   .     S
V358     V359    10.001   .     S
V358     Er375    10.0   .     S
V359     V360    10.001   .     S
Er361     V372    10.0   .     S
Er361     Er362    9.999   .     S
Er361     Er363    10.001   .     S
Er362     Er364    10.001   .     S
Er363     V379    10.0   .     S
Er363     Er364    9.999   .     S
Er365     V384    10.0   .     S
Er365     Er366    9.999   .     S
Er365     Er367    10.001   .     S
Er366     Er368    10.001   .     S
Er367     V373    10.0   .     S
Er367     Er368    9.999   .     S
V369     V370    10.001   .     S
V369     V374    10.001   .     S
V370     V371    10.001   .     S
V371     V372    10.001   .     S
V372     V373    10.001   .     S
V373     V374    10.001   .     S
Er375     Er376    9.999   .     S
Er375     Er377    10.001   .     S
Er376     Er378    10.001   .     S
Er377     V380    10.0   .     S
Er377     Er378    9.999   .     S
V379     V384    10.001   .     S
V379     V380    10.001   .     S
V380     V382    10.001   .     S
V381     V382    10.001   .     S
V381     V383    10.001   .     S
V383     V384    10.001   .     S
