data_ntta
_audit_creation_date              2020-02-04
_audit_creation_method            'Pymatgen'
_symmetry_space_group_name_H-M    'P1'
_symmetry_Int_Tables_number       1
loop_
_symmetry_equiv_pos_as_xyz
  x,y,z
_cell_length_a                    164.1911
_cell_length_b                    164.1911
_cell_length_c                    164.1911
_cell_angle_alpha                 90.0
_cell_angle_beta                 90.0
_cell_angle_gamma                 90.0
loop_
_atom_site_label
_atom_site_type_symbol
_atom_site_fract_x
_atom_site_fract_y
_atom_site_fract_z
V1     V     0.191   0.1479   0.0304
V2     V     0.191   0.1479   0.9696
V3     V     0.1479   0.191   0.0304
V4     V     0.1479   0.191   0.9696
V5     V     0.1479   0.0304   0.191
V6     V     0.1479   0.9696   0.191
V7     V     0.191   0.0304   0.1479
V8     V     0.191   0.9696   0.1479
V9     V     0.0304   0.191   0.1479
V10     V     0.9696   0.191   0.1479
V11     V     0.0304   0.1479   0.191
V12     V     0.9696   0.1479   0.191
V13     V     0.309   0.3521   0.0304
V14     V     0.309   0.3521   0.9696
V15     V     0.3521   0.309   0.0304
V16     V     0.3521   0.309   0.9696
V17     V     0.3521   0.0304   0.309
V18     V     0.3521   0.9696   0.309
V19     V     0.309   0.0304   0.3521
V20     V     0.309   0.9696   0.3521
V21     V     0.0304   0.309   0.3521
V22     V     0.9696   0.309   0.3521
V23     V     0.0304   0.3521   0.309
V24     V     0.9696   0.3521   0.309
V25     V     0.691   0.6479   0.0304
V26     V     0.691   0.6479   0.9696
V27     V     0.6479   0.691   0.0304
V28     V     0.6479   0.691   0.9696
V29     V     0.6479   0.309   0.0304
V30     V     0.6479   0.309   0.9696
V31     V     0.691   0.3521   0.0304
V32     V     0.691   0.3521   0.9696
V33     V     0.4696   0.309   0.1479
V34     V     0.5304   0.309   0.1479
V35     V     0.5304   0.3521   0.191
V36     V     0.4696   0.3521   0.191
V37     V     0.6479   0.0304   0.309
V38     V     0.6479   0.9696   0.309
V39     V     0.691   0.0304   0.3521
V40     V     0.691   0.9696   0.3521
Er41     Er     0.7843   0.1236   0.0805
Er42     Er     0.7843   0.0805   0.1236
Er43     Er     0.5805   0.2843   0.1236
Er44     Er     0.6236   0.2843   0.0805
Er45     Er     0.5805   0.1236   0.2843
Er46     Er     0.6236   0.0805   0.2843
Ti47     Ti     0.6234   0.241   0.1234
Ce48     Ce     0.648   0.191   0.148
Ti49     Ti     0.6234   0.1234   0.241
Ce50     Ce     0.648   0.148   0.191
Ce51     Ce     0.691   0.148   0.148
Ti52     Ti     0.741   0.1234   0.1234
V53     V     0.5304   0.1479   0.309
V54     V     0.4696   0.1479   0.309
V55     V     0.4696   0.191   0.3521
V56     V     0.5304   0.191   0.3521
Er57     Er     0.2157   0.0805   0.1236
Er58     Er     0.2157   0.1236   0.0805
Er59     Er     0.3764   0.2843   0.0805
Er60     Er     0.4195   0.2843   0.1236
Er61     Er     0.3764   0.0805   0.2843
Er62     Er     0.4195   0.1236   0.2843
Ce63     Ce     0.352   0.191   0.148
Ti64     Ti     0.3766   0.241   0.1234
Ce65     Ce     0.352   0.148   0.191
Ti66     Ti     0.3766   0.1234   0.241
Ce67     Ce     0.309   0.148   0.148
Ti68     Ti     0.259   0.1234   0.1234
V69     V     0.6479   0.0304   0.691
V70     V     0.6479   0.9696   0.691
V71     V     0.691   0.0304   0.6479
V72     V     0.691   0.9696   0.6479
V73     V     0.309   0.6479   0.0304
V74     V     0.309   0.6479   0.9696
V75     V     0.3521   0.691   0.0304
V76     V     0.3521   0.691   0.9696
V77     V     0.309   0.5304   0.1479
V78     V     0.309   0.4696   0.1479
V79     V     0.3521   0.4696   0.191
V80     V     0.3521   0.5304   0.191
V81     V     0.0304   0.6479   0.309
V82     V     0.9696   0.6479   0.309
V83     V     0.0304   0.691   0.3521
V84     V     0.9696   0.691   0.3521
Er85     Er     0.1236   0.2157   0.0805
Er86     Er     0.0805   0.2157   0.1236
Er87     Er     0.2843   0.3764   0.0805
Er88     Er     0.2843   0.4195   0.1236
Er89     Er     0.0805   0.3764   0.2843
Er90     Er     0.1236   0.4195   0.2843
Ce91     Ce     0.191   0.352   0.148
Ti92     Ti     0.241   0.3766   0.1234
Ce93     Ce     0.148   0.352   0.191
Ti94     Ti     0.1234   0.3766   0.241
Ce95     Ce     0.148   0.309   0.148
Ti96     Ti     0.1234   0.259   0.1234
V97     V     0.1479   0.4696   0.309
V98     V     0.1479   0.5304   0.309
V99     V     0.191   0.5304   0.3521
V100     V     0.191   0.4696   0.3521
Er101     Er     0.0805   0.7843   0.1236
Er102     Er     0.1236   0.7843   0.0805
Er103     Er     0.2843   0.5805   0.1236
Er104     Er     0.2843   0.6236   0.0805
Er105     Er     0.1236   0.5805   0.2843
Er106     Er     0.0805   0.6236   0.2843
Ti107     Ti     0.241   0.6234   0.1234
Ce108     Ce     0.191   0.648   0.148
Ti109     Ti     0.1234   0.6234   0.241
Ce110     Ce     0.148   0.648   0.191
Ce111     Ce     0.148   0.691   0.148
Ti112     Ti     0.1234   0.741   0.1234
V113     V     0.0304   0.691   0.6479
V114     V     0.9696   0.691   0.6479
V115     V     0.0304   0.6479   0.691
V116     V     0.9696   0.6479   0.691
V117     V     0.8521   0.191   0.0304
V118     V     0.8521   0.191   0.9696
V119     V     0.809   0.1479   0.0304
V120     V     0.809   0.1479   0.9696
V121     V     0.191   0.8521   0.0304
V122     V     0.191   0.8521   0.9696
V123     V     0.1479   0.809   0.0304
V124     V     0.1479   0.809   0.9696
Er125     Er     0.3764   0.7157   0.0805
Er126     Er     0.4195   0.7157   0.1236
Er127     Er     0.2157   0.9195   0.1236
Er128     Er     0.2157   0.8764   0.0805
Er129     Er     0.3764   0.9195   0.2843
Er130     Er     0.4195   0.8764   0.2843
Ti131     Ti     0.3766   0.759   0.1234
Ce132     Ce     0.352   0.809   0.148
Ti133     Ti     0.3766   0.8766   0.241
Ce134     Ce     0.352   0.852   0.191
Ti135     Ti     0.259   0.8766   0.1234
Ce136     Ce     0.309   0.852   0.148
V137     V     0.4696   0.8521   0.309
V138     V     0.5304   0.8521   0.309
V139     V     0.4696   0.809   0.3521
V140     V     0.5304   0.809   0.3521
Er141     Er     0.7843   0.9195   0.1236
Er142     Er     0.7843   0.8764   0.0805
Er143     Er     0.5805   0.7157   0.1236
Er144     Er     0.6236   0.7157   0.0805
Er145     Er     0.6236   0.9195   0.2843
Er146     Er     0.5805   0.8764   0.2843
Ti147     Ti     0.6234   0.759   0.1234
Ce148     Ce     0.648   0.809   0.148
Ti149     Ti     0.6234   0.8766   0.241
Ce150     Ce     0.648   0.852   0.191
Ti151     Ti     0.741   0.8766   0.1234
Ce152     Ce     0.691   0.852   0.148
V153     V     0.809   0.8521   0.0304
V154     V     0.809   0.8521   0.9696
V155     V     0.8521   0.809   0.0304
V156     V     0.8521   0.809   0.9696
Er157     Er     0.7157   0.3764   0.0805
Er158     Er     0.7157   0.4195   0.1236
Er159     Er     0.9195   0.2157   0.1236
Er160     Er     0.8764   0.2157   0.0805
Er161     Er     0.9195   0.3764   0.2843
Er162     Er     0.8764   0.4195   0.2843
Ti163     Ti     0.759   0.3766   0.1234
Ce164     Ce     0.809   0.352   0.148
Ti165     Ti     0.8766   0.3766   0.241
Ce166     Ce     0.852   0.352   0.191
Ti167     Ti     0.8766   0.259   0.1234
Ce168     Ce     0.852   0.309   0.148
V169     V     0.8521   0.4696   0.309
V170     V     0.8521   0.5304   0.309
V171     V     0.809   0.5304   0.3521
V172     V     0.809   0.4696   0.3521
Er173     Er     0.9195   0.7843   0.1236
Er174     Er     0.8764   0.7843   0.0805
Er175     Er     0.7157   0.5805   0.1236
Er176     Er     0.7157   0.6236   0.0805
Er177     Er     0.9195   0.6236   0.2843
Er178     Er     0.8764   0.5805   0.2843
Ti179     Ti     0.759   0.6234   0.1234
Ce180     Ce     0.809   0.648   0.148
Ti181     Ti     0.8766   0.6234   0.241
Ce182     Ce     0.852   0.648   0.191
Ce183     Ce     0.852   0.691   0.148
Ti184     Ti     0.8766   0.741   0.1234
V185     V     0.191   0.0304   0.8521
V186     V     0.191   0.9696   0.8521
V187     V     0.1479   0.0304   0.809
V188     V     0.1479   0.9696   0.809
V189     V     0.8521   0.0304   0.191
V190     V     0.8521   0.9696   0.191
V191     V     0.809   0.0304   0.1479
V192     V     0.809   0.9696   0.1479
Er193     Er     0.7157   0.0805   0.3764
Er194     Er     0.7157   0.1236   0.4195
Er195     Er     0.9195   0.1236   0.2157
Er196     Er     0.8764   0.0805   0.2157
Er197     Er     0.9195   0.2843   0.3764
Er198     Er     0.8764   0.2843   0.4195
Ti199     Ti     0.759   0.1234   0.3766
Ce200     Ce     0.809   0.148   0.352
Ti201     Ti     0.8766   0.241   0.3766
Ce202     Ce     0.852   0.191   0.352
Ti203     Ti     0.8766   0.1234   0.259
Ce204     Ce     0.852   0.148   0.309
V205     V     0.8521   0.309   0.4696
V206     V     0.8521   0.309   0.5304
V207     V     0.809   0.3521   0.5304
V208     V     0.809   0.3521   0.4696
Er209     Er     0.9195   0.1236   0.7843
Er210     Er     0.8764   0.0805   0.7843
Er211     Er     0.7157   0.1236   0.5805
Er212     Er     0.7157   0.0805   0.6236
Er213     Er     0.9195   0.2843   0.6236
Er214     Er     0.8764   0.2843   0.5805
Ti215     Ti     0.759   0.1234   0.6234
Ce216     Ce     0.809   0.148   0.648
Ti217     Ti     0.8766   0.241   0.6234
Ce218     Ce     0.852   0.191   0.648
Ti219     Ti     0.8766   0.1234   0.741
Ce220     Ce     0.852   0.148   0.691
V221     V     0.8521   0.0304   0.809
V222     V     0.8521   0.9696   0.809
V223     V     0.809   0.0304   0.8521
V224     V     0.809   0.9696   0.8521
Er225     Er     0.3764   0.0805   0.7157
Er226     Er     0.4195   0.1236   0.7157
Er227     Er     0.2157   0.1236   0.9195
Er228     Er     0.2157   0.0805   0.8764
Er229     Er     0.3764   0.2843   0.9195
Er230     Er     0.4195   0.2843   0.8764
Ti231     Ti     0.3766   0.1234   0.759
Ce232     Ce     0.352   0.148   0.809
Ti233     Ti     0.3766   0.241   0.8766
Ce234     Ce     0.352   0.191   0.852
Ti235     Ti     0.259   0.1234   0.8766
Ce236     Ce     0.309   0.148   0.852
V237     V     0.4696   0.309   0.8521
V238     V     0.5304   0.309   0.8521
V239     V     0.4696   0.3521   0.809
V240     V     0.5304   0.3521   0.809
Er241     Er     0.7843   0.1236   0.9195
Er242     Er     0.7843   0.0805   0.8764
Er243     Er     0.5805   0.1236   0.7157
Er244     Er     0.6236   0.0805   0.7157
Er245     Er     0.6236   0.2843   0.9195
Er246     Er     0.5805   0.2843   0.8764
Ti247     Ti     0.6234   0.1234   0.759
Ce248     Ce     0.648   0.148   0.809
Ti249     Ti     0.6234   0.241   0.8766
Ce250     Ce     0.648   0.191   0.852
Ce251     Ce     0.691   0.148   0.852
Ti252     Ti     0.741   0.1234   0.8766
Er253     Er     0.4195   0.3764   0.2157
Er254     Er     0.3764   0.4195   0.2157
Er255     Er     0.3764   0.2157   0.4195
Er256     Er     0.4195   0.2157   0.3764
Er257     Er     0.2157   0.3764   0.4195
Er258     Er     0.2157   0.4195   0.3764
Ce259     Ce     0.352   0.352   0.309
Ti260     Ti     0.3766   0.3766   0.259
Ce261     Ce     0.352   0.309   0.352
Ti262     Ti     0.3766   0.259   0.3766
Ti263     Ti     0.259   0.3766   0.3766
Ce264     Ce     0.309   0.352   0.352
V265     V     0.0304   0.8521   0.191
V266     V     0.9696   0.8521   0.191
V267     V     0.0304   0.809   0.1479
V268     V     0.9696   0.809   0.1479
Er269     Er     0.0805   0.7157   0.3764
Er270     Er     0.1236   0.7157   0.4195
Er271     Er     0.1236   0.9195   0.2157
Er272     Er     0.0805   0.8764   0.2157
Er273     Er     0.2843   0.9195   0.3764
Er274     Er     0.2843   0.8764   0.4195
Ti275     Ti     0.1234   0.759   0.3766
Ce276     Ce     0.148   0.809   0.352
Ti277     Ti     0.241   0.8766   0.3766
Ce278     Ce     0.191   0.852   0.352
Ti279     Ti     0.1234   0.8766   0.259
Ce280     Ce     0.148   0.852   0.309
V281     V     0.309   0.8521   0.4696
V282     V     0.309   0.8521   0.5304
V283     V     0.3521   0.809   0.5304
V284     V     0.3521   0.809   0.4696
Er285     Er     0.1236   0.9195   0.7843
Er286     Er     0.0805   0.8764   0.7843
Er287     Er     0.1236   0.7157   0.5805
Er288     Er     0.0805   0.7157   0.6236
Er289     Er     0.2843   0.9195   0.6236
Er290     Er     0.2843   0.8764   0.5805
Ti291     Ti     0.1234   0.759   0.6234
Ce292     Ce     0.148   0.809   0.648
Ti293     Ti     0.241   0.8766   0.6234
Ce294     Ce     0.191   0.852   0.648
Ti295     Ti     0.1234   0.8766   0.741
Ce296     Ce     0.148   0.852   0.691
V297     V     0.0304   0.8521   0.809
V298     V     0.9696   0.8521   0.809
V299     V     0.0304   0.809   0.8521
V300     V     0.9696   0.809   0.8521
V301     V     0.0304   0.191   0.8521
V302     V     0.9696   0.191   0.8521
V303     V     0.0304   0.1479   0.809
V304     V     0.9696   0.1479   0.809
Er305     Er     0.1236   0.7843   0.9195
Er306     Er     0.0805   0.7843   0.8764
Er307     Er     0.1236   0.5805   0.7157
Er308     Er     0.0805   0.6236   0.7157
Er309     Er     0.2843   0.6236   0.9195
Er310     Er     0.2843   0.5805   0.8764
Ti311     Ti     0.1234   0.6234   0.759
Ce312     Ce     0.148   0.648   0.809
Ti313     Ti     0.241   0.6234   0.8766
Ce314     Ce     0.191   0.648   0.852
Ce315     Ce     0.148   0.691   0.852
Ti316     Ti     0.1234   0.741   0.8766
V317     V     0.309   0.5304   0.8521
V318     V     0.309   0.4696   0.8521
V319     V     0.3521   0.5304   0.809
V320     V     0.3521   0.4696   0.809
Er321     Er     0.0805   0.3764   0.7157
Er322     Er     0.1236   0.4195   0.7157
Er323     Er     0.1236   0.2157   0.9195
Er324     Er     0.0805   0.2157   0.8764
Er325     Er     0.2843   0.3764   0.9195
Er326     Er     0.2843   0.4195   0.8764
Ti327     Ti     0.1234   0.3766   0.759
Ce328     Ce     0.148   0.352   0.809
Ti329     Ti     0.241   0.3766   0.8766
Ce330     Ce     0.191   0.352   0.852
Ti331     Ti     0.1234   0.259   0.8766
Ce332     Ce     0.148   0.309   0.852
V333     V     0.6479   0.5304   0.191
V334     V     0.6479   0.4696   0.191
V335     V     0.691   0.5304   0.1479
V336     V     0.691   0.4696   0.1479
V337     V     0.4696   0.6479   0.191
V338     V     0.5304   0.6479   0.191
V339     V     0.4696   0.691   0.1479
V340     V     0.5304   0.691   0.1479
Er341     Er     0.7843   0.3764   0.4195
Er342     Er     0.7843   0.4195   0.3764
Er343     Er     0.5805   0.3764   0.2157
Er344     Er     0.6236   0.4195   0.2157
Er345     Er     0.5805   0.2157   0.3764
Er346     Er     0.6236   0.2157   0.4195
Ti347     Ti     0.6234   0.3766   0.259
Ce348     Ce     0.648   0.352   0.309
Ce349     Ce     0.691   0.352   0.352
Ti350     Ti     0.741   0.3766   0.3766
Ti351     Ti     0.6234   0.259   0.3766
Ce352     Ce     0.648   0.309   0.352
V353     V     0.6479   0.191   0.4696
V354     V     0.6479   0.191   0.5304
V355     V     0.691   0.1479   0.4696
V356     V     0.691   0.1479   0.5304
V357     V     0.5304   0.6479   0.809
V358     V     0.4696   0.6479   0.809
V359     V     0.4696   0.691   0.8521
V360     V     0.5304   0.691   0.8521
Er361     Er     0.7843   0.8764   0.9195
Er362     Er     0.7843   0.9195   0.8764
Er363     Er     0.6236   0.7157   0.9195
Er364     Er     0.5805   0.7157   0.8764
Er365     Er     0.6236   0.9195   0.7157
Er366     Er     0.5805   0.8764   0.7157
Ti367     Ti     0.6234   0.759   0.8766
Ce368     Ce     0.648   0.809   0.852
Ti369     Ti     0.741   0.8766   0.8766
Ce370     Ce     0.691   0.852   0.852
Ti371     Ti     0.6234   0.8766   0.759
Ce372     Ce     0.648   0.852   0.809
V373     V     0.5304   0.8521   0.691
V374     V     0.4696   0.8521   0.691
V375     V     0.4696   0.809   0.6479
V376     V     0.5304   0.809   0.6479
Er377     Er     0.3764   0.7157   0.9195
Er378     Er     0.4195   0.7157   0.8764
Er379     Er     0.2157   0.9195   0.8764
Er380     Er     0.2157   0.8764   0.9195
Er381     Er     0.3764   0.9195   0.7157
Er382     Er     0.4195   0.8764   0.7157
Ti383     Ti     0.259   0.8766   0.8766
Ce384     Ce     0.309   0.852   0.852
Ti385     Ti     0.3766   0.759   0.8766
Ce386     Ce     0.352   0.809   0.852
Ti387     Ti     0.3766   0.8766   0.759
Ce388     Ce     0.352   0.852   0.809
Er389     Er     0.5805   0.7843   0.3764
Er390     Er     0.6236   0.7843   0.4195
Er391     Er     0.7843   0.5805   0.3764
Er392     Er     0.7843   0.6236   0.4195
Er393     Er     0.5805   0.6236   0.2157
Er394     Er     0.6236   0.5805   0.2157
Ti395     Ti     0.6234   0.6234   0.259
Ce396     Ce     0.648   0.648   0.309
Ce397     Ce     0.648   0.691   0.352
Ti398     Ti     0.6234   0.741   0.3766
Ti399     Ti     0.741   0.6234   0.3766
Ce400     Ce     0.691   0.648   0.352
V401     V     0.6479   0.809   0.5304
V402     V     0.6479   0.809   0.4696
V403     V     0.691   0.8521   0.4696
V404     V     0.691   0.8521   0.5304
Er405     Er     0.8764   0.9195   0.7843
Er406     Er     0.9195   0.8764   0.7843
Er407     Er     0.7157   0.9195   0.6236
Er408     Er     0.7157   0.8764   0.5805
Er409     Er     0.9195   0.7157   0.6236
Er410     Er     0.8764   0.7157   0.5805
Ti411     Ti     0.759   0.8766   0.6234
Ce412     Ce     0.809   0.852   0.648
Ti413     Ti     0.8766   0.8766   0.741
Ce414     Ce     0.852   0.852   0.691
Ti415     Ti     0.8766   0.759   0.6234
Ce416     Ce     0.852   0.809   0.648
V417     V     0.8521   0.691   0.5304
V418     V     0.8521   0.691   0.4696
V419     V     0.809   0.6479   0.4696
V420     V     0.809   0.6479   0.5304
Er421     Er     0.7157   0.9195   0.3764
Er422     Er     0.7157   0.8764   0.4195
Er423     Er     0.9195   0.8764   0.2157
Er424     Er     0.8764   0.9195   0.2157
Er425     Er     0.9195   0.7157   0.3764
Er426     Er     0.8764   0.7157   0.4195
Ti427     Ti     0.8766   0.8766   0.259
Ce428     Ce     0.852   0.852   0.309
Ti429     Ti     0.759   0.8766   0.3766
Ce430     Ce     0.809   0.852   0.352
Ti431     Ti     0.8766   0.759   0.3766
Ce432     Ce     0.852   0.809   0.352
Er433     Er     0.6236   0.5805   0.7843
Er434     Er     0.5805   0.6236   0.7843
Er435     Er     0.5805   0.7843   0.6236
Er436     Er     0.6236   0.7843   0.5805
Er437     Er     0.7843   0.5805   0.6236
Er438     Er     0.7843   0.6236   0.5805
Ti439     Ti     0.6234   0.6234   0.741
Ce440     Ce     0.648   0.648   0.691
Ti441     Ti     0.6234   0.741   0.6234
Ce442     Ce     0.648   0.691   0.648
Ti443     Ti     0.741   0.6234   0.6234
Ce444     Ce     0.691   0.648   0.648
V445     V     0.6479   0.4696   0.809
V446     V     0.6479   0.5304   0.809
V447     V     0.691   0.5304   0.8521
V448     V     0.691   0.4696   0.8521
Er449     Er     0.7157   0.3764   0.9195
Er450     Er     0.7157   0.4195   0.8764
Er451     Er     0.8764   0.2157   0.9195
Er452     Er     0.9195   0.2157   0.8764
Er453     Er     0.9195   0.3764   0.7157
Er454     Er     0.8764   0.4195   0.7157
Ti455     Ti     0.8766   0.259   0.8766
Ce456     Ce     0.852   0.309   0.852
Ti457     Ti     0.759   0.3766   0.8766
Ce458     Ce     0.809   0.352   0.852
Ti459     Ti     0.8766   0.3766   0.759
Ce460     Ce     0.852   0.352   0.809
V461     V     0.8521   0.4696   0.691
V462     V     0.8521   0.5304   0.691
V463     V     0.809   0.5304   0.6479
V464     V     0.809   0.4696   0.6479
Er465     Er     0.9195   0.7843   0.8764
Er466     Er     0.8764   0.7843   0.9195
Er467     Er     0.7157   0.6236   0.9195
Er468     Er     0.7157   0.5805   0.8764
Er469     Er     0.9195   0.6236   0.7157
Er470     Er     0.8764   0.5805   0.7157
Ti471     Ti     0.759   0.6234   0.8766
Ce472     Ce     0.809   0.648   0.852
Ti473     Ti     0.8766   0.741   0.8766
Ce474     Ce     0.852   0.691   0.852
Ti475     Ti     0.8766   0.6234   0.759
Ce476     Ce     0.852   0.648   0.809
Er477     Er     0.5805   0.3764   0.7843
Er478     Er     0.6236   0.4195   0.7843
Er479     Er     0.7843   0.3764   0.5805
Er480     Er     0.7843   0.4195   0.6236
Er481     Er     0.5805   0.2157   0.6236
Er482     Er     0.6236   0.2157   0.5805
Ce483     Ce     0.648   0.352   0.691
Ti484     Ti     0.6234   0.3766   0.741
Ti485     Ti     0.6234   0.259   0.6234
Ce486     Ce     0.648   0.309   0.648
Ce487     Ce     0.691   0.352   0.648
Ti488     Ti     0.741   0.3766   0.6234
V489     V     0.5304   0.191   0.6479
V490     V     0.4696   0.191   0.6479
V491     V     0.4696   0.1479   0.691
V492     V     0.5304   0.1479   0.691
Er493     Er     0.4195   0.7843   0.3764
Er494     Er     0.3764   0.7843   0.4195
Er495     Er     0.3764   0.5805   0.2157
Er496     Er     0.4195   0.6236   0.2157
Er497     Er     0.2157   0.5805   0.3764
Er498     Er     0.2157   0.6236   0.4195
Ti499     Ti     0.3766   0.6234   0.259
Ce500     Ce     0.352   0.648   0.309
Ce501     Ce     0.352   0.691   0.352
Ti502     Ti     0.3766   0.741   0.3766
Ti503     Ti     0.259   0.6234   0.3766
Ce504     Ce     0.309   0.648   0.352
V505     V     0.191   0.6479   0.4696
V506     V     0.191   0.6479   0.5304
V507     V     0.1479   0.691   0.4696
V508     V     0.1479   0.691   0.5304
Er509     Er     0.3764   0.5805   0.7843
Er510     Er     0.4195   0.6236   0.7843
Er511     Er     0.3764   0.7843   0.5805
Er512     Er     0.4195   0.7843   0.6236
Er513     Er     0.2157   0.5805   0.6236
Er514     Er     0.2157   0.6236   0.5805
Ce515     Ce     0.352   0.648   0.691
Ti516     Ti     0.3766   0.6234   0.741
Ti517     Ti     0.259   0.6234   0.6234
Ce518     Ce     0.309   0.648   0.648
Ce519     Ce     0.352   0.691   0.648
Ti520     Ti     0.3766   0.741   0.6234
V521     V     0.191   0.5304   0.6479
V522     V     0.191   0.4696   0.6479
V523     V     0.1479   0.5304   0.691
V524     V     0.1479   0.4696   0.691
Er525     Er     0.3764   0.4195   0.7843
Er526     Er     0.4195   0.3764   0.7843
Er527     Er     0.3764   0.2157   0.5805
Er528     Er     0.4195   0.2157   0.6236
Er529     Er     0.2157   0.3764   0.5805
Er530     Er     0.2157   0.4195   0.6236
Ce531     Ce     0.352   0.352   0.691
Ti532     Ti     0.3766   0.3766   0.741
Ti533     Ti     0.3766   0.259   0.6234
Ce534     Ce     0.352   0.309   0.648
Ti535     Ti     0.259   0.3766   0.6234
Ce536     Ce     0.309   0.352   0.648
V537     V     0.309   0.0304   0.6479
V538     V     0.309   0.9696   0.6479
V539     V     0.3521   0.0304   0.691
V540     V     0.3521   0.9696   0.691
V541     V     0.309   0.1479   0.4696
V542     V     0.309   0.1479   0.5304
V543     V     0.3521   0.191   0.5304
V544     V     0.3521   0.191   0.4696
V545     V     0.0304   0.309   0.6479
V546     V     0.9696   0.309   0.6479
V547     V     0.0304   0.3521   0.691
V548     V     0.9696   0.3521   0.691
Er549     Er     0.1236   0.0805   0.7843
Er550     Er     0.0805   0.1236   0.7843
Er551     Er     0.2843   0.1236   0.5805
Er552     Er     0.2843   0.0805   0.6236
Er553     Er     0.1236   0.2843   0.5805
Er554     Er     0.0805   0.2843   0.6236
Ti555     Ti     0.241   0.1234   0.6234
Ce556     Ce     0.191   0.148   0.648
Ti557     Ti     0.1234   0.241   0.6234
Ce558     Ce     0.148   0.191   0.648
Ce559     Ce     0.148   0.148   0.691
Ti560     Ti     0.1234   0.1234   0.741
V561     V     0.1479   0.309   0.5304
V562     V     0.1479   0.309   0.4696
V563     V     0.191   0.3521   0.5304
V564     V     0.191   0.3521   0.4696
Er565     Er     0.0805   0.1236   0.2157
Er566     Er     0.1236   0.0805   0.2157
Er567     Er     0.2843   0.0805   0.3764
Er568     Er     0.2843   0.1236   0.4195
Er569     Er     0.0805   0.2843   0.3764
Er570     Er     0.1236   0.2843   0.4195
Ce571     Ce     0.191   0.148   0.352
Ti572     Ti     0.241   0.1234   0.3766
Ce573     Ce     0.148   0.191   0.352
Ti574     Ti     0.1234   0.241   0.3766
Ti575     Ti     0.1234   0.1234   0.259
Ce576     Ce     0.148   0.148   0.309
loop_
_geom_bond_atom_site_label_1
_geom_bond_atom_site_label_2
_geom_bond_distance
_geom_bond_site_symmetry_2
_ccdc_geom_bond_type
V1     Er58    10.001   .     S
V1     V2    9.999   1_554     S
V1     V3    10.001   .     S
V2     Er227    10.001   .     S
V2     V1    9.999   1_556     S
V2     V4    10.001   .     S
V3     Er85    10.001   .     S
V3     V4    9.999   1_554     S
V4     Er323    10.001   .     S
V4     V3    9.999   1_556     S
V5     Er566    10.001   .     S
V5     V6    9.999   1_545     S
V5     V7    10.001   .     S
V6     Er271    10.001   .     S
V6     V5    9.999   1_565     S
V6     V8    10.001   .     S
V7     Er57    10.001   .     S
V7     V8    9.999   1_545     S
V8     Er127    10.001   .     S
V8     V7    9.999   1_565     S
V9     Er86    10.001   .     S
V9     V10    9.999   1_455     S
V9     V11    10.001   .     S
V10     Er159    10.001   .     S
V10     V9    9.999   1_655     S
V10     V12    10.001   .     S
V11     Er565    10.001   .     S
V11     V12    9.999   1_455     S
V12     Er195    10.001   .     S
V12     V11    9.999   1_655     S
V13     Er87    10.001   .     S
V13     V14    9.999   1_554     S
V13     V15    10.001   .     S
V14     Er325    10.001   .     S
V14     V13    9.999   1_556     S
V14     V16    10.001   .     S
V15     Er59    10.001   .     S
V15     V16    9.999   1_554     S
V16     Er229    10.001   .     S
V16     V15    9.999   1_556     S
V17     Er61    10.001   .     S
V17     V18    9.999   1_545     S
V17     V19    10.001   .     S
V18     Er129    10.001   .     S
V18     V17    9.999   1_565     S
V18     V20    10.001   .     S
V19     Er567    10.001   .     S
V19     V20    9.999   1_545     S
V20     Er273    10.001   .     S
V20     V19    9.999   1_565     S
V21     Er569    10.001   .     S
V21     V22    9.999   1_455     S
V21     V23    10.001   .     S
V22     Er197    10.001   .     S
V22     V21    9.999   1_655     S
V22     V24    10.001   .     S
V23     Er89    10.001   .     S
V23     V24    9.999   1_455     S
V24     Er161    10.001   .     S
V24     V23    9.999   1_655     S
V25     Er176    10.001   .     S
V25     V26    9.999   1_554     S
V25     V27    10.001   .     S
V26     Er467    10.001   .     S
V26     V25    9.999   1_556     S
V26     V28    10.001   .     S
V27     Er144    10.001   .     S
V27     V28    9.999   1_554     S
V28     Er363    10.001   .     S
V28     V27    9.999   1_556     S
V29     Er44    10.001   .     S
V29     V30    9.999   1_554     S
V29     V31    10.001   .     S
V30     Er245    10.001   .     S
V30     V29    9.999   1_556     S
V30     V32    10.001   .     S
V31     Er157    10.001   .     S
V31     V32    9.999   1_554     S
V32     Er449    10.001   .     S
V32     V31    9.999   1_556     S
V33     Er60    10.001   .     S
V33     V34    9.999   .     S
V33     V36    10.001   .     S
V34     Er43    10.001   .     S
V34     V35    10.001   .     S
V35     Er343    10.001   .     S
V35     V36    9.999   .     S
V36     Er253    10.001   .     S
V37     Er46    10.001   .     S
V37     V38    9.999   1_545     S
V37     V39    10.001   .     S
V38     Er145    10.001   .     S
V38     V37    9.999   1_565     S
V38     V40    10.001   .     S
V39     Er193    10.001   .     S
V39     V40    9.999   1_545     S
V40     Er421    10.001   .     S
V40     V39    9.999   1_565     S
Er41     Er42    9.999   .     S
Er41     Ti52    10.0   .     S
Er41     V119    10.001   .     S
Er42     Ti52    10.0   .     S
Er42     V191    10.001   .     S
Er43     Er44    9.999   .     S
Er43     Ti47    10.0   .     S
Er44     Ti47    10.0   .     S
Er45     Er46    9.999   .     S
Er45     Ti49    10.0   .     S
Er45     V53    10.001   .     S
Er46     Ti49    10.0   .     S
Ti47     Ce48    9.999   .     S
Ce48     Ce50    10.001   .     S
Ce48     Ce51    10.001   .     S
Ti49     Ce50    9.999   .     S
Ce50     Ce51    10.001   .     S
Ce51     Ti52    9.999   .     S
V53     V54    9.999   .     S
V53     V56    10.001   .     S
V54     Er62    10.001   .     S
V54     V55    10.001   .     S
V55     Er256    10.001   .     S
V55     V56    9.999   .     S
V56     Er345    10.001   .     S
Er57     Er58    9.999   .     S
Er57     Ti68    10.0   .     S
Er58     Ti68    10.0   .     S
Er59     Er60    9.999   .     S
Er59     Ti64    10.0   .     S
Er60     Ti64    10.0   .     S
Er61     Er62    9.999   .     S
Er61     Ti66    10.0   .     S
Er62     Ti66    10.0   .     S
Ce63     Ti64    9.999   .     S
Ce63     Ce67    10.001   .     S
Ce63     Ce65    10.001   .     S
Ce65     Ti66    9.999   .     S
Ce65     Ce67    10.001   .     S
Ce67     Ti68    9.999   .     S
V69     Er244    10.001   .     S
V69     V70    9.999   1_545     S
V69     V71    10.001   .     S
V70     Er365    10.001   .     S
V70     V69    9.999   1_565     S
V70     V72    10.001   .     S
V71     Er212    10.001   .     S
V71     V72    9.999   1_545     S
V72     Er407    10.001   .     S
V72     V71    9.999   1_565     S
V73     Er104    10.001   .     S
V73     V74    9.999   1_554     S
V73     V75    10.001   .     S
V74     Er309    10.001   .     S
V74     V73    9.999   1_556     S
V74     V76    10.001   .     S
V75     Er125    10.001   .     S
V75     V76    9.999   1_554     S
V76     Er377    10.001   .     S
V76     V75    9.999   1_556     S
V77     Er103    10.001   .     S
V77     V78    9.999   .     S
V77     V80    10.001   .     S
V78     Er88    10.001   .     S
V78     V79    10.001   .     S
V79     Er254    10.001   .     S
V79     V80    9.999   .     S
V80     Er495    10.001   .     S
V81     Er106    10.001   .     S
V81     V82    9.999   1_455     S
V81     V83    10.001   .     S
V82     Er177    10.001   .     S
V82     V81    9.999   1_655     S
V82     V84    10.001   .     S
V83     Er269    10.001   .     S
V83     V84    9.999   1_455     S
V84     Er425    10.001   .     S
V84     V83    9.999   1_655     S
Er85     Er86    9.999   .     S
Er85     Ti96    10.0   .     S
Er86     Ti96    10.0   .     S
Er87     Er88    9.999   .     S
Er87     Ti92    10.0   .     S
Er88     Ti92    10.0   .     S
Er89     Er90    9.999   .     S
Er89     Ti94    10.0   .     S
Er90     Ti94    10.0   .     S
Er90     V97    10.001   .     S
Ce91     Ti92    9.999   .     S
Ce91     Ce95    10.001   .     S
Ce91     Ce93    10.001   .     S
Ce93     Ti94    9.999   .     S
Ce93     Ce95    10.001   .     S
Ce95     Ti96    9.999   .     S
V97     V98    9.999   .     S
V97     V100    10.001   .     S
V98     Er105    10.001   .     S
V98     V99    10.001   .     S
V99     Er497    10.001   .     S
V99     V100    9.999   .     S
V100     Er258    10.001   .     S
Er101     Er102    9.999   .     S
Er101     Ti112    10.0   .     S
Er101     V267    10.001   .     S
Er102     Ti112    10.0   .     S
Er102     V123    10.001   .     S
Er103     Er104    9.999   .     S
Er103     Ti107    10.0   .     S
Er104     Ti107    10.0   .     S
Er105     Er106    9.999   .     S
Er105     Ti109    10.0   .     S
Er106     Ti109    10.0   .     S
Ti107     Ce108    9.999   .     S
Ce108     Ce110    10.001   .     S
Ce108     Ce111    10.001   .     S
Ti109     Ce110    9.999   .     S
Ce110     Ce111    10.001   .     S
Ce111     Ti112    9.999   .     S
V113     Er288    10.001   .     S
V113     V114    9.999   1_455     S
V113     V115    10.001   .     S
V114     Er409    10.001   .     S
V114     V113    9.999   1_655     S
V114     V116    10.001   .     S
V115     Er308    10.001   .     S
V115     V116    9.999   1_455     S
V116     Er469    10.001   .     S
V116     V115    9.999   1_655     S
V117     Er160    10.001   .     S
V117     V118    9.999   1_554     S
V117     V119    10.001   .     S
V118     Er451    10.001   .     S
V118     V117    9.999   1_556     S
V118     V120    10.001   .     S
V119     V120    9.999   1_554     S
V120     Er241    10.001   .     S
V120     V119    9.999   1_556     S
V121     Er128    10.001   .     S
V121     V122    9.999   1_554     S
V121     V123    10.001   .     S
V122     Er380    10.001   .     S
V122     V121    9.999   1_556     S
V122     V124    10.001   .     S
V123     V124    9.999   1_554     S
V124     Er305    10.001   .     S
V124     V123    9.999   1_556     S
Er125     Er126    9.999   .     S
Er125     Ti131    10.0   .     S
Er126     Ti131    10.0   .     S
Er126     V339    10.001   .     S
Er127     Er128    9.999   .     S
Er127     Ti135    10.0   .     S
Er128     Ti135    10.0   .     S
Er129     Er130    9.999   .     S
Er129     Ti133    10.0   .     S
Er130     Ti133    10.0   .     S
Er130     V137    10.001   .     S
Ti131     Ce132    9.999   .     S
Ce132     Ce136    10.001   .     S
Ce132     Ce134    10.001   .     S
Ti133     Ce134    9.999   .     S
Ce134     Ce136    10.001   .     S
Ti135     Ce136    9.999   .     S
V137     V138    9.999   .     S
V137     V139    10.001   .     S
V138     Er146    10.001   .     S
V138     V140    10.001   .     S
V139     Er493    10.001   .     S
V139     V140    9.999   .     S
V140     Er389    10.001   .     S
Er141     Er142    9.999   .     S
Er141     Ti151    10.0   .     S
Er141     V192    10.001   .     S
Er142     Ti151    10.0   .     S
Er142     V153    10.001   .     S
Er143     Er144    9.999   .     S
Er143     Ti147    10.0   .     S
Er143     V340    10.001   .     S
Er144     Ti147    10.0   .     S
Er145     Er146    9.999   .     S
Er145     Ti149    10.0   .     S
Er146     Ti149    10.0   .     S
Ti147     Ce148    9.999   .     S
Ce148     Ce150    10.001   .     S
Ce148     Ce152    10.001   .     S
Ti149     Ce150    9.999   .     S
Ce150     Ce152    10.001   .     S
Ti151     Ce152    9.999   .     S
V153     V154    9.999   1_554     S
V153     V155    10.001   .     S
V154     Er361    10.001   .     S
V154     V153    9.999   1_556     S
V154     V156    10.001   .     S
V155     Er174    10.001   .     S
V155     V156    9.999   1_554     S
V156     Er466    10.001   .     S
V156     V155    9.999   1_556     S
Er157     Er158    9.999   .     S
Er157     Ti163    10.0   .     S
Er158     Ti163    10.0   .     S
Er158     V336    10.001   .     S
Er159     Er160    9.999   .     S
Er159     Ti167    10.0   .     S
Er160     Ti167    10.0   .     S
Er161     Er162    9.999   .     S
Er161     Ti165    10.0   .     S
Er162     Ti165    10.0   .     S
Er162     V169    10.001   .     S
Ti163     Ce164    9.999   .     S
Ce164     Ce168    10.001   .     S
Ce164     Ce166    10.001   .     S
Ti165     Ce166    9.999   .     S
Ce166     Ce168    10.001   .     S
Ti167     Ce168    9.999   .     S
V169     V170    9.999   .     S
V169     V172    10.001   .     S
V170     Er178    10.001   .     S
V170     V171    10.001   .     S
V171     Er391    10.001   .     S
V171     V172    9.999   .     S
V172     Er342    10.001   .     S
Er173     Er174    9.999   .     S
Er173     Ti184    10.0   .     S
Er173     V268    10.001   .     S
Er174     Ti184    10.0   .     S
Er175     Er176    9.999   .     S
Er175     Ti179    10.0   .     S
Er175     V335    10.001   .     S
Er176     Ti179    10.0   .     S
Er177     Er178    9.999   .     S
Er177     Ti181    10.0   .     S
Er178     Ti181    10.0   .     S
Ti179     Ce180    9.999   .     S
Ce180     Ce182    10.001   .     S
Ce180     Ce183    10.001   .     S
Ti181     Ce182    9.999   .     S
Ce182     Ce183    10.001   .     S
Ce183     Ti184    9.999   .     S
V185     Er228    10.001   .     S
V185     V186    9.999   1_545     S
V185     V187    10.001   .     S
V186     Er379    10.001   .     S
V186     V185    9.999   1_565     S
V186     V188    10.001   .     S
V187     Er549    10.001   .     S
V187     V188    9.999   1_545     S
V188     Er285    10.001   .     S
V188     V187    9.999   1_565     S
V189     Er196    10.001   .     S
V189     V190    9.999   1_545     S
V189     V191    10.001   .     S
V190     Er424    10.001   .     S
V190     V189    9.999   1_565     S
V190     V192    10.001   .     S
V191     V192    9.999   1_545     S
V192     V191    9.999   1_565     S
Er193     Er194    9.999   .     S
Er193     Ti199    10.0   .     S
Er194     Ti199    10.0   .     S
Er194     V355    10.001   .     S
Er195     Er196    9.999   .     S
Er195     Ti203    10.0   .     S
Er196     Ti203    10.0   .     S
Er197     Er198    9.999   .     S
Er197     Ti201    10.0   .     S
Er198     Ti201    10.0   .     S
Er198     V205    10.001   .     S
Ti199     Ce200    9.999   .     S
Ce200     Ce204    10.001   .     S
Ce200     Ce202    10.001   .     S
Ti201     Ce202    9.999   .     S
Ce202     Ce204    10.001   .     S
Ti203     Ce204    9.999   .     S
V205     V206    9.999   .     S
V205     V208    10.001   .     S
V206     Er214    10.001   .     S
V206     V207    10.001   .     S
V207     Er479    10.001   .     S
V207     V208    9.999   .     S
V208     Er341    10.001   .     S
Er209     Er210    9.999   .     S
Er209     Ti219    10.0   .     S
Er209     V304    10.001   .     S
Er210     Ti219    10.0   .     S
Er210     V221    10.001   .     S
Er211     Er212    9.999   .     S
Er211     Ti215    10.0   .     S
Er211     V356    10.001   .     S
Er212     Ti215    10.0   .     S
Er213     Er214    9.999   .     S
Er213     Ti217    10.0   .     S
Er213     V546    10.001   .     S
Er214     Ti217    10.0   .     S
Ti215     Ce216    9.999   .     S
Ce216     Ce218    10.001   .     S
Ce216     Ce220    10.001   .     S
Ti217     Ce218    9.999   .     S
Ce218     Ce220    10.001   .     S
Ti219     Ce220    9.999   .     S
V221     V222    9.999   1_545     S
V221     V223    10.001   .     S
V222     Er405    10.001   .     S
V222     V221    9.999   1_565     S
V222     V224    10.001   .     S
V223     Er242    10.001   .     S
V223     V224    9.999   1_545     S
V224     Er362    10.001   .     S
V224     V223    9.999   1_565     S
Er225     Er226    9.999   .     S
Er225     Ti231    10.0   .     S
Er225     V539    10.001   .     S
Er226     Ti231    10.0   .     S
Er226     V491    10.001   .     S
Er227     Er228    9.999   .     S
Er227     Ti235    10.0   .     S
Er228     Ti235    10.0   .     S
Er229     Er230    9.999   .     S
Er229     Ti233    10.0   .     S
Er230     Ti233    10.0   .     S
Er230     V237    10.001   .     S
Ti231     Ce232    9.999   .     S
Ce232     Ce236    10.001   .     S
Ce232     Ce234    10.001   .     S
Ti233     Ce234    9.999   .     S
Ce234     Ce236    10.001   .     S
Ti235     Ce236    9.999   .     S
V237     V238    9.999   .     S
V237     V239    10.001   .     S
V238     Er246    10.001   .     S
V238     V240    10.001   .     S
V239     Er526    10.001   .     S
V239     V240    9.999   .     S
V240     Er477    10.001   .     S
Er241     Er242    9.999   .     S
Er241     Ti252    10.0   .     S
Er242     Ti252    10.0   .     S
Er243     Er244    9.999   .     S
Er243     Ti247    10.0   .     S
Er243     V492    10.001   .     S
Er244     Ti247    10.0   .     S
Er245     Er246    9.999   .     S
Er245     Ti249    10.0   .     S
Er246     Ti249    10.0   .     S
Ti247     Ce248    9.999   .     S
Ce248     Ce250    10.001   .     S
Ce248     Ce251    10.001   .     S
Ti249     Ce250    9.999   .     S
Ce250     Ce251    10.001   .     S
Ce251     Ti252    9.999   .     S
Er253     Er254    9.999   .     S
Er253     Ti260    10.0   .     S
Er254     Ti260    10.0   .     S
Er255     Er256    9.999   .     S
Er255     Ti262    10.0   .     S
Er255     V544    10.001   .     S
Er256     Ti262    10.0   .     S
Er257     Er258    9.999   .     S
Er257     Ti263    10.0   .     S
Er257     V564    10.001   .     S
Er258     Ti263    10.0   .     S
Ce259     Ti260    9.999   .     S
Ce259     Ce264    10.001   .     S
Ce259     Ce261    10.001   .     S
Ce261     Ti262    9.999   .     S
Ce261     Ce264    10.001   .     S
Ti263     Ce264    9.999   .     S
V265     Er272    10.001   .     S
V265     V266    9.999   1_455     S
V265     V267    10.001   .     S
V266     Er423    10.001   .     S
V266     V265    9.999   1_655     S
V266     V268    10.001   .     S
V267     V268    9.999   1_455     S
V268     V267    9.999   1_655     S
Er269     Er270    9.999   .     S
Er269     Ti275    10.0   .     S
Er270     Ti275    10.0   .     S
Er270     V507    10.001   .     S
Er271     Er272    9.999   .     S
Er271     Ti279    10.0   .     S
Er272     Ti279    10.0   .     S
Er273     Er274    9.999   .     S
Er273     Ti277    10.0   .     S
Er274     Ti277    10.0   .     S
Er274     V281    10.001   .     S
Ti275     Ce276    9.999   .     S
Ce276     Ce280    10.001   .     S
Ce276     Ce278    10.001   .     S
Ti277     Ce278    9.999   .     S
Ce278     Ce280    10.001   .     S
Ti279     Ce280    9.999   .     S
V281     V282    9.999   .     S
V281     V284    10.001   .     S
V282     Er290    10.001   .     S
V282     V283    10.001   .     S
V283     Er511    10.001   .     S
V283     V284    9.999   .     S
V284     Er494    10.001   .     S
Er285     Er286    9.999   .     S
Er285     Ti295    10.0   .     S
Er286     Ti295    10.0   .     S
Er286     V297    10.001   .     S
Er287     Er288    9.999   .     S
Er287     Ti291    10.0   .     S
Er287     V508    10.001   .     S
Er288     Ti291    10.0   .     S
Er289     Er290    9.999   .     S
Er289     Ti293    10.0   .     S
Er289     V538    10.001   .     S
Er290     Ti293    10.0   .     S
Ti291     Ce292    9.999   .     S
Ce292     Ce294    10.001   .     S
Ce292     Ce296    10.001   .     S
Ti293     Ce294    9.999   .     S
Ce294     Ce296    10.001   .     S
Ti295     Ce296    9.999   .     S
V297     V298    9.999   1_455     S
V297     V299    10.001   .     S
V298     Er406    10.001   .     S
V298     V297    9.999   1_655     S
V298     V300    10.001   .     S
V299     Er306    10.001   .     S
V299     V300    9.999   1_455     S
V300     Er465    10.001   .     S
V300     V299    9.999   1_655     S
V301     Er324    10.001   .     S
V301     V302    9.999   1_455     S
V301     V303    10.001   .     S
V302     Er452    10.001   .     S
V302     V301    9.999   1_655     S
V302     V304    10.001   .     S
V303     Er550    10.001   .     S
V303     V304    9.999   1_455     S
V304     V303    9.999   1_655     S
Er305     Er306    9.999   .     S
Er305     Ti316    10.0   .     S
Er306     Ti316    10.0   .     S
Er307     Er308    9.999   .     S
Er307     Ti311    10.0   .     S
Er307     V523    10.001   .     S
Er308     Ti311    10.0   .     S
Er309     Er310    9.999   .     S
Er309     Ti313    10.0   .     S
Er310     Ti313    10.0   .     S
Er310     V317    10.001   .     S
Ti311     Ce312    9.999   .     S
Ce312     Ce314    10.001   .     S
Ce312     Ce315    10.001   .     S
Ti313     Ce314    9.999   .     S
Ce314     Ce315    10.001   .     S
Ce315     Ti316    9.999   .     S
V317     V318    9.999   .     S
V317     V319    10.001   .     S
V318     Er326    10.001   .     S
V318     V320    10.001   .     S
V319     Er509    10.001   .     S
V319     V320    9.999   .     S
V320     Er525    10.001   .     S
Er321     Er322    9.999   .     S
Er321     Ti327    10.0   .     S
Er321     V547    10.001   .     S
Er322     Ti327    10.0   .     S
Er322     V524    10.001   .     S
Er323     Er324    9.999   .     S
Er323     Ti331    10.0   .     S
Er324     Ti331    10.0   .     S
Er325     Er326    9.999   .     S
Er325     Ti329    10.0   .     S
Er326     Ti329    10.0   .     S
Ti327     Ce328    9.999   .     S
Ce328     Ce332    10.001   .     S
Ce328     Ce330    10.001   .     S
Ti329     Ce330    9.999   .     S
Ce330     Ce332    10.001   .     S
Ti331     Ce332    9.999   .     S
V333     Er394    10.001   .     S
V333     V334    9.999   .     S
V333     V335    10.001   .     S
V334     Er344    10.001   .     S
V334     V336    10.001   .     S
V335     V336    9.999   .     S
V337     Er496    10.001   .     S
V337     V338    9.999   .     S
V337     V339    10.001   .     S
V338     Er393    10.001   .     S
V338     V340    10.001   .     S
V339     V340    9.999   .     S
Er341     Er342    9.999   .     S
Er341     Ti350    10.0   .     S
Er342     Ti350    10.0   .     S
Er343     Er344    9.999   .     S
Er343     Ti347    10.0   .     S
Er344     Ti347    10.0   .     S
Er345     Er346    9.999   .     S
Er345     Ti351    10.0   .     S
Er346     Ti351    10.0   .     S
Er346     V353    10.001   .     S
Ti347     Ce348    9.999   .     S
Ce348     Ce352    10.001   .     S
Ce348     Ce349    10.001   .     S
Ce349     Ti350    9.999   .     S
Ce349     Ce352    10.001   .     S
Ti351     Ce352    9.999   .     S
V353     V354    9.999   .     S
V353     V355    10.001   .     S
V354     Er482    10.001   .     S
V354     V356    10.001   .     S
V355     V356    9.999   .     S
V357     Er434    10.001   .     S
V357     V358    9.999   .     S
V357     V360    10.001   .     S
V358     Er510    10.001   .     S
V358     V359    10.001   .     S
V359     Er378    10.001   .     S
V359     V360    9.999   .     S
V360     Er364    10.001   .     S
Er361     Er362    9.999   .     S
Er361     Ti369    10.0   .     S
Er362     Ti369    10.0   .     S
Er363     Er364    9.999   .     S
Er363     Ti367    10.0   .     S
Er364     Ti367    10.0   .     S
Er365     Er366    9.999   .     S
Er365     Ti371    10.0   .     S
Er366     Ti371    10.0   .     S
Er366     V373    10.001   .     S
Ti367     Ce368    9.999   .     S
Ce368     Ce370    10.001   .     S
Ce368     Ce372    10.001   .     S
Ti369     Ce370    9.999   .     S
Ce370     Ce372    10.001   .     S
Ti371     Ce372    9.999   .     S
V373     V374    9.999   .     S
V373     V376    10.001   .     S
V374     Er382    10.001   .     S
V374     V375    10.001   .     S
V375     Er512    10.001   .     S
V375     V376    9.999   .     S
V376     Er435    10.001   .     S
Er377     Er378    9.999   .     S
Er377     Ti385    10.0   .     S
Er378     Ti385    10.0   .     S
Er379     Er380    9.999   .     S
Er379     Ti383    10.0   .     S
Er380     Ti383    10.0   .     S
Er381     Er382    9.999   .     S
Er381     Ti387    10.0   .     S
Er381     V540    10.001   .     S
Er382     Ti387    10.0   .     S
Ti383     Ce384    9.999   .     S
Ce384     Ce388    10.001   .     S
Ce384     Ce386    10.001   .     S
Ti385     Ce386    9.999   .     S
Ce386     Ce388    10.001   .     S
Ti387     Ce388    9.999   .     S
Er389     Er390    9.999   .     S
Er389     Ti398    10.0   .     S
Er390     Ti398    10.0   .     S
Er390     V402    10.001   .     S
Er391     Er392    9.999   .     S
Er391     Ti399    10.0   .     S
Er392     Ti399    10.0   .     S
Er392     V419    10.001   .     S
Er393     Er394    9.999   .     S
Er393     Ti395    10.0   .     S
Er394     Ti395    10.0   .     S
Ti395     Ce396    9.999   .     S
Ce396     Ce400    10.001   .     S
Ce396     Ce397    10.001   .     S
Ce397     Ti398    9.999   .     S
Ce397     Ce400    10.001   .     S
Ti399     Ce400    9.999   .     S
V401     Er436    10.001   .     S
V401     V402    9.999   .     S
V401     V404    10.001   .     S
V402     V403    10.001   .     S
V403     Er422    10.001   .     S
V403     V404    9.999   .     S
V404     Er408    10.001   .     S
Er405     Er406    9.999   .     S
Er405     Ti413    10.0   .     S
Er406     Ti413    10.0   .     S
Er407     Er408    9.999   .     S
Er407     Ti411    10.0   .     S
Er408     Ti411    10.0   .     S
Er409     Er410    9.999   .     S
Er409     Ti415    10.0   .     S
Er410     Ti415    10.0   .     S
Er410     V417    10.001   .     S
Ti411     Ce412    9.999   .     S
Ce412     Ce414    10.001   .     S
Ce412     Ce416    10.001   .     S
Ti413     Ce414    9.999   .     S
Ce414     Ce416    10.001   .     S
Ti415     Ce416    9.999   .     S
V417     V418    9.999   .     S
V417     V420    10.001   .     S
V418     Er426    10.001   .     S
V418     V419    10.001   .     S
V419     V420    9.999   .     S
V420     Er438    10.001   .     S
Er421     Er422    9.999   .     S
Er421     Ti429    10.0   .     S
Er422     Ti429    10.0   .     S
Er423     Er424    9.999   .     S
Er423     Ti427    10.0   .     S
Er424     Ti427    10.0   .     S
Er425     Er426    9.999   .     S
Er425     Ti431    10.0   .     S
Er426     Ti431    10.0   .     S
Ti427     Ce428    9.999   .     S
Ce428     Ce432    10.001   .     S
Ce428     Ce430    10.001   .     S
Ti429     Ce430    9.999   .     S
Ce430     Ce432    10.001   .     S
Ti431     Ce432    9.999   .     S
Er433     Er434    9.999   .     S
Er433     Ti439    10.0   .     S
Er433     V446    10.001   .     S
Er434     Ti439    10.0   .     S
Er435     Er436    9.999   .     S
Er435     Ti441    10.0   .     S
Er436     Ti441    10.0   .     S
Er437     Er438    9.999   .     S
Er437     Ti443    10.0   .     S
Er437     V463    10.001   .     S
Er438     Ti443    10.0   .     S
Ti439     Ce440    9.999   .     S
Ce440     Ce444    10.001   .     S
Ce440     Ce442    10.001   .     S
Ti441     Ce442    9.999   .     S
Ce442     Ce444    10.001   .     S
Ti443     Ce444    9.999   .     S
V445     Er478    10.001   .     S
V445     V446    9.999   .     S
V445     V448    10.001   .     S
V446     V447    10.001   .     S
V447     Er468    10.001   .     S
V447     V448    9.999   .     S
V448     Er450    10.001   .     S
Er449     Er450    9.999   .     S
Er449     Ti457    10.0   .     S
Er450     Ti457    10.0   .     S
Er451     Er452    9.999   .     S
Er451     Ti455    10.0   .     S
Er452     Ti455    10.0   .     S
Er453     Er454    9.999   .     S
Er453     Ti459    10.0   .     S
Er453     V548    10.001   .     S
Er454     Ti459    10.0   .     S
Er454     V461    10.001   .     S
Ti455     Ce456    9.999   .     S
Ce456     Ce458    10.001   .     S
Ce456     Ce460    10.001   .     S
Ti457     Ce458    9.999   .     S
Ce458     Ce460    10.001   .     S
Ti459     Ce460    9.999   .     S
V461     V462    9.999   .     S
V461     V464    10.001   .     S
V462     Er470    10.001   .     S
V462     V463    10.001   .     S
V463     V464    9.999   .     S
V464     Er480    10.001   .     S
Er465     Er466    9.999   .     S
Er465     Ti473    10.0   .     S
Er466     Ti473    10.0   .     S
Er467     Er468    9.999   .     S
Er467     Ti471    10.0   .     S
Er468     Ti471    10.0   .     S
Er469     Er470    9.999   .     S
Er469     Ti475    10.0   .     S
Er470     Ti475    10.0   .     S
Ti471     Ce472    9.999   .     S
Ce472     Ce474    10.001   .     S
Ce472     Ce476    10.001   .     S
Ti473     Ce474    9.999   .     S
Ce474     Ce476    10.001   .     S
Ti475     Ce476    9.999   .     S
Er477     Er478    9.999   .     S
Er477     Ti484    10.0   .     S
Er478     Ti484    10.0   .     S
Er479     Er480    9.999   .     S
Er479     Ti488    10.0   .     S
Er480     Ti488    10.0   .     S
Er481     Er482    9.999   .     S
Er481     Ti485    10.0   .     S
Er481     V489    10.001   .     S
Er482     Ti485    10.0   .     S
Ce483     Ti484    9.999   .     S
Ce483     Ce486    10.001   .     S
Ce483     Ce487    10.001   .     S
Ti485     Ce486    9.999   .     S
Ce486     Ce487    10.001   .     S
Ce487     Ti488    9.999   .     S
V489     V490    9.999   .     S
V489     V492    10.001   .     S
V490     Er528    10.001   .     S
V490     V491    10.001   .     S
V491     V492    9.999   .     S
Er493     Er494    9.999   .     S
Er493     Ti502    10.0   .     S
Er494     Ti502    10.0   .     S
Er495     Er496    9.999   .     S
Er495     Ti499    10.0   .     S
Er496     Ti499    10.0   .     S
Er497     Er498    9.999   .     S
Er497     Ti503    10.0   .     S
Er498     Ti503    10.0   .     S
Er498     V505    10.001   .     S
Ti499     Ce500    9.999   .     S
Ce500     Ce504    10.001   .     S
Ce500     Ce501    10.001   .     S
Ce501     Ti502    9.999   .     S
Ce501     Ce504    10.001   .     S
Ti503     Ce504    9.999   .     S
V505     V506    9.999   .     S
V505     V507    10.001   .     S
V506     Er514    10.001   .     S
V506     V508    10.001   .     S
V507     V508    9.999   .     S
Er509     Er510    9.999   .     S
Er509     Ti516    10.0   .     S
Er510     Ti516    10.0   .     S
Er511     Er512    9.999   .     S
Er511     Ti520    10.0   .     S
Er512     Ti520    10.0   .     S
Er513     Er514    9.999   .     S
Er513     Ti517    10.0   .     S
Er513     V521    10.001   .     S
Er514     Ti517    10.0   .     S
Ce515     Ti516    9.999   .     S
Ce515     Ce518    10.001   .     S
Ce515     Ce519    10.001   .     S
Ti517     Ce518    9.999   .     S
Ce518     Ce519    10.001   .     S
Ce519     Ti520    9.999   .     S
V521     V522    9.999   .     S
V521     V523    10.001   .     S
V522     Er530    10.001   .     S
V522     V524    10.001   .     S
V523     V524    9.999   .     S
Er525     Er526    9.999   .     S
Er525     Ti532    10.0   .     S
Er526     Ti532    10.0   .     S
Er527     Er528    9.999   .     S
Er527     Ti533    10.0   .     S
Er527     V543    10.001   .     S
Er528     Ti533    10.0   .     S
Er529     Er530    9.999   .     S
Er529     Ti535    10.0   .     S
Er529     V563    10.001   .     S
Er530     Ti535    10.0   .     S
Ce531     Ti532    9.999   .     S
Ce531     Ce536    10.001   .     S
Ce531     Ce534    10.001   .     S
Ti533     Ce534    9.999   .     S
Ce534     Ce536    10.001   .     S
Ti535     Ce536    9.999   .     S
V537     Er552    10.001   .     S
V537     V538    9.999   1_545     S
V537     V539    10.001   .     S
V538     V537    9.999   1_565     S
V538     V540    10.001   .     S
V539     V540    9.999   1_545     S
V540     V539    9.999   1_565     S
V541     Er568    10.001   .     S
V541     V542    9.999   .     S
V541     V544    10.001   .     S
V542     Er551    10.001   .     S
V542     V543    10.001   .     S
V543     V544    9.999   .     S
V545     Er554    10.001   .     S
V545     V546    9.999   1_455     S
V545     V547    10.001   .     S
V546     V545    9.999   1_655     S
V546     V548    10.001   .     S
V547     V548    9.999   1_455     S
V548     V547    9.999   1_655     S
Er549     Er550    9.999   .     S
Er549     Ti560    10.0   .     S
Er550     Ti560    10.0   .     S
Er551     Er552    9.999   .     S
Er551     Ti555    10.0   .     S
Er552     Ti555    10.0   .     S
Er553     Er554    9.999   .     S
Er553     Ti557    10.0   .     S
Er553     V561    10.001   .     S
Er554     Ti557    10.0   .     S
Ti555     Ce556    9.999   .     S
Ce556     Ce558    10.001   .     S
Ce556     Ce559    10.001   .     S
Ti557     Ce558    9.999   .     S
Ce558     Ce559    10.001   .     S
Ce559     Ti560    9.999   .     S
V561     V562    9.999   .     S
V561     V563    10.001   .     S
V562     Er570    10.001   .     S
V562     V564    10.001   .     S
V563     V564    9.999   .     S
Er565     Er566    9.999   .     S
Er565     Ti575    10.0   .     S
Er566     Ti575    10.0   .     S
Er567     Er568    9.999   .     S
Er567     Ti572    10.0   .     S
Er568     Ti572    10.0   .     S
Er569     Er570    9.999   .     S
Er569     Ti574    10.0   .     S
Er570     Ti574    10.0   .     S
Ce571     Ti572    9.999   .     S
Ce571     Ce576    10.001   .     S
Ce571     Ce573    10.001   .     S
Ce573     Ti574    9.999   .     S
Ce573     Ce576    10.001   .     S
Ti575     Ce576    9.999   .     S
