data_ntwa
_audit_creation_date              2020-02-04
_audit_creation_method            'Pymatgen'
_symmetry_space_group_name_H-M    'P1'
_symmetry_Int_Tables_number       1
loop_
_symmetry_equiv_pos_as_xyz
  x,y,z
_cell_length_a                    104.7522
_cell_length_b                    104.7522
_cell_length_c                    104.7522
_cell_angle_alpha                 90.0
_cell_angle_beta                 90.0
_cell_angle_gamma                 90.0
loop_
_atom_site_label
_atom_site_type_symbol
_atom_site_fract_x
_atom_site_fract_y
_atom_site_fract_z
Ce1     Ce     0.6   0.6153   0.8261
Ce2     Ce     0.6153   0.6739   0.9
Ce3     Ce     0.6739   0.6   0.8847
Ce4     Ce     0.6153   0.8261   0.6
Ce5     Ce     0.6739   0.9   0.6153
Ce6     Ce     0.6   0.8847   0.6739
Ce7     Ce     0.8261   0.6   0.6153
Ce8     Ce     0.9   0.6153   0.6739
Ce9     Ce     0.8847   0.6739   0.6
Ce10     Ce     0.8847   0.8261   0.9
Ce11     Ce     0.9   0.8847   0.8261
Ce12     Ce     0.8261   0.9   0.8847
Ce13     Ce     0.6153   0.3261   0.9
Ce14     Ce     0.6   0.3847   0.8261
Ce15     Ce     0.6739   0.4   0.8847
Ce16     Ce     0.6   0.8847   0.3261
Ce17     Ce     0.6739   0.9   0.3847
Ce18     Ce     0.6153   0.8261   0.4
Ce19     Ce     0.9   0.6153   0.3261
Ce20     Ce     0.8261   0.6   0.3847
Ce21     Ce     0.8847   0.6739   0.4
Ce22     Ce     0.8847   0.3261   0.6
Ce23     Ce     0.8261   0.4   0.6153
Ce24     Ce     0.9   0.3847   0.6739
Ce25     Ce     0.6   0.6153   0.1739
Ce26     Ce     0.6739   0.6   0.1153
Ce27     Ce     0.6153   0.6739   0.1
Ce28     Ce     0.3261   0.6   0.8847
Ce29     Ce     0.4   0.6153   0.8261
Ce30     Ce     0.3847   0.6739   0.9
Ce31     Ce     0.6153   0.1739   0.6
Ce32     Ce     0.6739   0.1   0.6153
Ce33     Ce     0.6   0.1153   0.6739
Ce34     Ce     0.3261   0.9   0.6153
Ce35     Ce     0.3847   0.8261   0.6
Ce36     Ce     0.4   0.8847   0.6739
Ce37     Ce     0.1739   0.6   0.6153
Ce38     Ce     0.1153   0.6739   0.6
Ce39     Ce     0.1   0.6153   0.6739
Ce40     Ce     0.9   0.8847   0.1739
Ce41     Ce     0.8261   0.9   0.1153
Ce42     Ce     0.8847   0.8261   0.1
Ce43     Ce     0.8847   0.1739   0.9
Ce44     Ce     0.9   0.1153   0.8261
Ce45     Ce     0.8261   0.1   0.8847
Ce46     Ce     0.1739   0.9   0.8847
Ce47     Ce     0.1153   0.8261   0.9
Ce48     Ce     0.1   0.8847   0.8261
Ce49     Ce     0.3261   0.4   0.8847
Ce50     Ce     0.4   0.3847   0.8261
Ce51     Ce     0.3847   0.3261   0.9
Ce52     Ce     0.4   0.8847   0.3261
Ce53     Ce     0.3261   0.9   0.3847
Ce54     Ce     0.3847   0.8261   0.4
Ce55     Ce     0.8847   0.3261   0.4
Ce56     Ce     0.8261   0.4   0.3847
Ce57     Ce     0.9   0.3847   0.3261
Ti58     Ti     0.5477   0.4082   0.7498
Ti59     Ti     0.4523   0.4082   0.7498
Er60     Er     0.5   0.4299   0.67
Ti61     Ti     0.5477   0.4082   0.2502
Ti62     Ti     0.4523   0.4082   0.2502
Er63     Er     0.5   0.4299   0.33
Ti64     Ti     0.4082   0.7498   0.5477
Ti65     Ti     0.4082   0.7498   0.4523
Er66     Er     0.4299   0.67   0.5
Ti67     Ti     0.4082   0.2502   0.5477
Ti68     Ti     0.4082   0.2502   0.4523
Er69     Er     0.4299   0.33   0.5
Ti70     Ti     0.7498   0.5477   0.4082
Ti71     Ti     0.7498   0.4523   0.4082
Er72     Er     0.67   0.5   0.4299
Ti73     Ti     0.2502   0.5477   0.4082
Ti74     Ti     0.2502   0.4523   0.4082
Er75     Er     0.33   0.5   0.4299
Ti76     Ti     0.5477   0.5918   0.7498
Ti77     Ti     0.4523   0.5918   0.7498
Er78     Er     0.5   0.5701   0.67
Ti79     Ti     0.5477   0.5918   0.2502
Ti80     Ti     0.4523   0.5918   0.2502
Er81     Er     0.5   0.5701   0.33
Ti82     Ti     0.5918   0.7498   0.5477
Ti83     Ti     0.5918   0.7498   0.4523
Er84     Er     0.5701   0.67   0.5
Ti85     Ti     0.5918   0.2502   0.5477
Ti86     Ti     0.5918   0.2502   0.4523
Er87     Er     0.5701   0.33   0.5
Ti88     Ti     0.7498   0.5477   0.5918
Ti89     Ti     0.7498   0.4523   0.5918
Er90     Er     0.67   0.5   0.5701
V91     V     0.4228   0.5   0.5477
V92     V     0.5   0.5477   0.5772
V93     V     0.5772   0.5   0.5477
V94     V     0.5477   0.5772   0.5
V95     V     0.5   0.5477   0.4228
V96     V     0.5477   0.4228   0.5
V97     V     0.4228   0.5   0.4523
V98     V     0.4523   0.4228   0.5
V99     V     0.5   0.4523   0.4228
V100     V     0.5772   0.5   0.4523
V101     V     0.4523   0.5772   0.5
V102     V     0.5   0.4523   0.5772
Ti103     Ti     0.2502   0.5477   0.5918
Ti104     Ti     0.2502   0.4523   0.5918
Er105     Er     0.33   0.5   0.5701
Ce106     Ce     0.6153   0.3261   0.1
Ce107     Ce     0.6739   0.4   0.1153
Ce108     Ce     0.6   0.3847   0.1739
Ce109     Ce     0.3261   0.1   0.6153
Ce110     Ce     0.4   0.1153   0.6739
Ce111     Ce     0.3847   0.1739   0.6
Ce112     Ce     0.1   0.6153   0.3261
Ce113     Ce     0.1153   0.6739   0.4
Ce114     Ce     0.1739   0.6   0.3847
Ce115     Ce     0.1   0.8847   0.1739
Ce116     Ce     0.1153   0.8261   0.1
Ce117     Ce     0.1739   0.9   0.1153
Ce118     Ce     0.1739   0.4   0.6153
Ce119     Ce     0.1153   0.3261   0.6
Ce120     Ce     0.1   0.3847   0.6739
Ce121     Ce     0.1   0.3847   0.3261
Ce122     Ce     0.1153   0.3261   0.4
Ce123     Ce     0.1739   0.4   0.3847
Ti124     Ti     0.0918   0.7498   0.9523
Ti125     Ti     0.0918   0.7498   0.0477
Er126     Er     0.0701   0.67   0.0
Ti127     Ti     0.0918   0.2502   0.9523
Ti128     Ti     0.0918   0.2502   0.0477
Er129     Er     0.0701   0.33   0.0
Ti130     Ti     0.9082   0.7498   0.9523
Ti131     Ti     0.9082   0.7498   0.0477
Er132     Er     0.9299   0.67   0.0
Ti133     Ti     0.9082   0.2502   0.9523
Ti134     Ti     0.9082   0.2502   0.0477
Er135     Er     0.9299   0.33   0.0
Ti136     Ti     0.2498   0.5477   0.0918
Ti137     Ti     0.2498   0.4523   0.0918
Er138     Er     0.17   0.5   0.0701
Ti139     Ti     0.9523   0.4082   0.2498
Ti140     Ti     0.0477   0.4082   0.2498
Er141     Er     0.0   0.4299   0.17
Ti142     Ti     0.2498   0.5477   0.9082
Ti143     Ti     0.2498   0.4523   0.9082
Er144     Er     0.17   0.5   0.9299
Ti145     Ti     0.7502   0.5477   0.0918
Ti146     Ti     0.7502   0.4523   0.0918
Er147     Er     0.83   0.5   0.0701
Ti148     Ti     0.9523   0.5918   0.2498
Ti149     Ti     0.0477   0.5918   0.2498
Er150     Er     0.0   0.5701   0.17
Ti151     Ti     0.9523   0.4082   0.7502
Ti152     Ti     0.0477   0.4082   0.7502
Er153     Er     0.0   0.4299   0.83
Ti154     Ti     0.7502   0.5477   0.9082
Ti155     Ti     0.7502   0.4523   0.9082
Er156     Er     0.83   0.5   0.9299
V157     V     0.0772   0.5   0.9523
V158     V     0.0477   0.4228   0.0
V159     V     0.0477   0.5772   0.0
V160     V     0.0   0.4523   0.0772
V161     V     0.0   0.5477   0.0772
V162     V     0.0772   0.5   0.0477
V163     V     0.9523   0.5772   0.0
V164     V     0.0   0.5477   0.9228
V165     V     0.9523   0.4228   0.0
V166     V     0.0   0.4523   0.9228
V167     V     0.9228   0.5   0.9523
V168     V     0.9228   0.5   0.0477
Ti169     Ti     0.9523   0.5918   0.7502
Ti170     Ti     0.0477   0.5918   0.7502
Er171     Er     0.0   0.5701   0.83
Ce172     Ce     0.1739   0.1   0.8847
Ce173     Ce     0.1   0.1153   0.8261
Ce174     Ce     0.1153   0.1739   0.9
Ce175     Ce     0.6153   0.1739   0.4
Ce176     Ce     0.6739   0.1   0.3847
Ce177     Ce     0.6   0.1153   0.3261
Ce178     Ce     0.3261   0.1   0.3847
Ce179     Ce     0.4   0.1153   0.3261
Ce180     Ce     0.3847   0.1739   0.4
Ti181     Ti     0.9523   0.0918   0.7498
Ti182     Ti     0.0477   0.0918   0.7498
Er183     Er     0.0   0.0701   0.67
Ti184     Ti     0.9523   0.0918   0.2502
Ti185     Ti     0.0477   0.0918   0.2502
Er186     Er     0.0   0.0701   0.33
Ti187     Ti     0.9523   0.9082   0.7498
Ti188     Ti     0.0477   0.9082   0.7498
Er189     Er     0.0   0.9299   0.67
Ti190     Ti     0.9523   0.9082   0.2502
Ti191     Ti     0.0477   0.9082   0.2502
Er192     Er     0.0   0.9299   0.33
Ti193     Ti     0.2498   0.9523   0.4082
Ti194     Ti     0.2498   0.0477   0.4082
Er195     Er     0.17   0.0   0.4299
Ti196     Ti     0.0918   0.2498   0.5477
Ti197     Ti     0.0918   0.2498   0.4523
Er198     Er     0.0701   0.17   0.5
Ti199     Ti     0.9082   0.2498   0.5477
Ti200     Ti     0.9082   0.2498   0.4523
Er201     Er     0.9299   0.17   0.5
Ti202     Ti     0.7502   0.9523   0.4082
Ti203     Ti     0.7502   0.0477   0.4082
Er204     Er     0.83   0.0   0.4299
Ti205     Ti     0.2498   0.9523   0.5918
Ti206     Ti     0.2498   0.0477   0.5918
Er207     Er     0.17   0.0   0.5701
Ti208     Ti     0.0918   0.7502   0.5477
Ti209     Ti     0.0918   0.7502   0.4523
Er210     Er     0.0701   0.83   0.5
Ti211     Ti     0.9082   0.7502   0.5477
Ti212     Ti     0.9082   0.7502   0.4523
Er213     Er     0.9299   0.83   0.5
V214     V     0.0772   0.0   0.4523
V215     V     0.0772   0.0   0.5477
V216     V     0.0477   0.0772   0.5
V217     V     0.9523   0.0772   0.5
V218     V     0.0   0.0477   0.4228
V219     V     0.0   0.0477   0.5772
V220     V     0.0   0.9523   0.4228
V221     V     0.9228   0.0   0.4523
V222     V     0.9228   0.0   0.5477
V223     V     0.0   0.9523   0.5772
V224     V     0.9523   0.9228   0.5
V225     V     0.0477   0.9228   0.5
Ti226     Ti     0.7502   0.9523   0.5918
Ti227     Ti     0.7502   0.0477   0.5918
Er228     Er     0.83   0.0   0.5701
Ce229     Ce     0.4   0.6153   0.1739
Ce230     Ce     0.3261   0.6   0.1153
Ce231     Ce     0.3847   0.6739   0.1
Ce232     Ce     0.3847   0.3261   0.1
Ce233     Ce     0.3261   0.4   0.1153
Ce234     Ce     0.4   0.3847   0.1739
Ce235     Ce     0.8847   0.1739   0.1
Ce236     Ce     0.8261   0.1   0.1153
Ce237     Ce     0.9   0.1153   0.1739
Ce238     Ce     0.1153   0.1739   0.1
Ce239     Ce     0.1   0.1153   0.1739
Ce240     Ce     0.1739   0.1   0.1153
Ti241     Ti     0.7498   0.9523   0.0918
Ti242     Ti     0.7498   0.0477   0.0918
Er243     Er     0.67   0.0   0.0701
Ti244     Ti     0.2502   0.9523   0.0918
Ti245     Ti     0.2502   0.0477   0.0918
Er246     Er     0.33   0.0   0.0701
Ti247     Ti     0.7498   0.9523   0.9082
Ti248     Ti     0.7498   0.0477   0.9082
Er249     Er     0.67   0.0   0.9299
Ti250     Ti     0.2502   0.9523   0.9082
Ti251     Ti     0.2502   0.0477   0.9082
Er252     Er     0.33   0.0   0.9299
Ti253     Ti     0.4082   0.2498   0.9523
Ti254     Ti     0.4082   0.2498   0.0477
Er255     Er     0.4299   0.17   0.0
Ti256     Ti     0.5477   0.0918   0.2498
Ti257     Ti     0.4523   0.0918   0.2498
Er258     Er     0.5   0.0701   0.17
Ti259     Ti     0.5477   0.9082   0.2498
Ti260     Ti     0.4523   0.9082   0.2498
Er261     Er     0.5   0.9299   0.17
Ti262     Ti     0.4082   0.7502   0.9523
Ti263     Ti     0.4082   0.7502   0.0477
Er264     Er     0.4299   0.83   0.0
Ti265     Ti     0.5918   0.2498   0.9523
Ti266     Ti     0.5918   0.2498   0.0477
Er267     Er     0.5701   0.17   0.0
Ti268     Ti     0.5477   0.0918   0.7502
Ti269     Ti     0.4523   0.0918   0.7502
Er270     Er     0.5   0.0701   0.83
Ti271     Ti     0.5477   0.9082   0.7502
Ti272     Ti     0.4523   0.9082   0.7502
Er273     Er     0.5   0.9299   0.83
V274     V     0.4523   0.0772   0.0
V275     V     0.5477   0.0772   0.0
V276     V     0.5   0.0477   0.0772
V277     V     0.5   0.9523   0.0772
V278     V     0.4228   0.0   0.0477
V279     V     0.5772   0.0   0.0477
V280     V     0.4228   0.0   0.9523
V281     V     0.4523   0.9228   0.0
V282     V     0.5477   0.9228   0.0
V283     V     0.5772   0.0   0.9523
V284     V     0.5   0.9523   0.9228
V285     V     0.5   0.0477   0.9228
Ti286     Ti     0.5918   0.7502   0.9523
Ti287     Ti     0.5918   0.7502   0.0477
Er288     Er     0.5701   0.83   0.0
loop_
_geom_bond_atom_site_label_1
_geom_bond_atom_site_label_2
_geom_bond_distance
_geom_bond_site_symmetry_2
_ccdc_geom_bond_type
Ce1     Ce3    9.999   .     S
Ce1     Ce2    9.999   .     S
Ce1     Ti76    10.0   .     S
Ce2     Ce3    9.999   .     S
Ce2     Ti286    10.0   .     S
Ce3     Ti154    10.0   .     S
Ce4     Ce6    9.999   .     S
Ce4     Ce5    9.999   .     S
Ce4     Ti82    10.0   .     S
Ce5     Ce6    9.999   .     S
Ce5     Ti226    10.0   .     S
Ce6     Ti271    10.0   .     S
Ce7     Ce9    9.999   .     S
Ce7     Ce8    9.999   .     S
Ce7     Ti88    10.0   .     S
Ce8     Ce9    9.999   .     S
Ce8     Ti169    10.0   .     S
Ce9     Ti211    10.0   .     S
Ce10     Ce11    9.999   .     S
Ce10     Ce12    9.999   .     S
Ce10     Ti130    10.0   .     S
Ce11     Ce12    9.999   .     S
Ce11     Ti187    10.0   .     S
Ce12     Ti247    10.0   .     S
Ce13     Ce14    9.999   .     S
Ce13     Ce15    9.999   .     S
Ce13     Ti265    10.0   .     S
Ce14     Ce15    9.999   .     S
Ce14     Ti58    10.0   .     S
Ce15     Ti155    10.0   .     S
Ce16     Ce17    9.999   .     S
Ce16     Ce18    9.999   .     S
Ce16     Ti259    10.0   .     S
Ce17     Ce18    9.999   .     S
Ce17     Ti202    10.0   .     S
Ce18     Ti83    10.0   .     S
Ce19     Ce20    9.999   .     S
Ce19     Ce21    9.999   .     S
Ce19     Ti148    10.0   .     S
Ce20     Ce21    9.999   .     S
Ce20     Ti70    10.0   .     S
Ce21     Ti212    10.0   .     S
Ce22     Ce24    9.999   .     S
Ce22     Ce23    9.999   .     S
Ce22     Ti199    10.0   .     S
Ce23     Ce24    9.999   .     S
Ce23     Ti89    10.0   .     S
Ce24     Ti151    10.0   .     S
Ce25     Ce26    9.999   .     S
Ce25     Ce27    9.999   .     S
Ce25     Ti79    10.0   .     S
Ce26     Ce27    9.999   .     S
Ce26     Ti145    10.0   .     S
Ce27     Ti287    10.0   .     S
Ce28     Ce30    9.999   .     S
Ce28     Ce29    9.999   .     S
Ce28     Ti142    10.0   .     S
Ce29     Ce30    9.999   .     S
Ce29     Ti77    10.0   .     S
Ce30     Ti262    10.0   .     S
Ce31     Ce33    9.999   .     S
Ce31     Ce32    9.999   .     S
Ce31     Ti85    10.0   .     S
Ce32     Ce33    9.999   .     S
Ce32     Ti227    10.0   .     S
Ce33     Ti268    10.0   .     S
Ce34     Ce35    9.999   .     S
Ce34     Ce36    9.999   .     S
Ce34     Ti205    10.0   .     S
Ce35     Ce36    9.999   .     S
Ce35     Ti64    10.0   .     S
Ce36     Ti272    10.0   .     S
Ce37     Ce38    9.999   .     S
Ce37     Ce39    9.999   .     S
Ce37     Ti103    10.0   .     S
Ce38     Ce39    9.999   .     S
Ce38     Ti208    10.0   .     S
Ce39     Ti170    10.0   .     S
Ce40     Ce41    9.999   .     S
Ce40     Ce42    9.999   .     S
Ce40     Ti190    10.0   .     S
Ce41     Ce42    9.999   .     S
Ce41     Ti241    10.0   .     S
Ce42     Ti131    10.0   .     S
Ce43     Ce44    9.999   .     S
Ce43     Ce45    9.999   .     S
Ce43     Ti133    10.0   .     S
Ce44     Ce45    9.999   .     S
Ce44     Ti181    10.0   .     S
Ce45     Ti248    10.0   .     S
Ce46     Ce47    9.999   .     S
Ce46     Ce48    9.999   .     S
Ce46     Ti250    10.0   .     S
Ce47     Ce48    9.999   .     S
Ce47     Ti124    10.0   .     S
Ce48     Ti188    10.0   .     S
Ce49     Ce51    9.999   .     S
Ce49     Ce50    9.999   .     S
Ce49     Ti143    10.0   .     S
Ce50     Ce51    9.999   .     S
Ce50     Ti59    10.0   .     S
Ce51     Ti253    10.0   .     S
Ce52     Ce53    9.999   .     S
Ce52     Ce54    9.999   .     S
Ce52     Ti260    10.0   .     S
Ce53     Ce54    9.999   .     S
Ce53     Ti193    10.0   .     S
Ce54     Ti65    10.0   .     S
Ce55     Ce57    9.999   .     S
Ce55     Ce56    9.999   .     S
Ce55     Ti200    10.0   .     S
Ce56     Ce57    9.999   .     S
Ce56     Ti71    10.0   .     S
Ce57     Ti139    10.0   .     S
Ti58     Ti59    10.0   .     S
Ti58     Er60    10.0   .     S
Ti59     Er60    10.0   .     S
Er60     V102    10.001   .     S
Ti61     Ce108    10.0   .     S
Ti61     Ti62    10.0   .     S
Ti61     Er63    10.0   .     S
Ti62     Ce234    10.0   .     S
Ti62     Er63    10.0   .     S
Er63     V99    10.001   .     S
Ti64     Ti65    10.0   .     S
Ti64     Er66    10.0   .     S
Ti65     Er66    10.0   .     S
Er66     V101    10.001   .     S
Ti67     Ce111    10.0   .     S
Ti67     Ti68    10.0   .     S
Ti67     Er69    10.0   .     S
Ti68     Ce180    10.0   .     S
Ti68     Er69    10.0   .     S
Er69     V98    10.001   .     S
Ti70     Ti71    10.0   .     S
Ti70     Er72    10.0   .     S
Ti71     Er72    10.0   .     S
Er72     V100    10.001   .     S
Ti73     Ce114    10.0   .     S
Ti73     Ti74    10.0   .     S
Ti73     Er75    10.0   .     S
Ti74     Ce123    10.0   .     S
Ti74     Er75    10.0   .     S
Er75     V97    10.001   .     S
Ti76     Ti77    10.0   .     S
Ti76     Er78    10.0   .     S
Ti77     Er78    10.0   .     S
Er78     V92    10.001   .     S
Ti79     Ti80    10.0   .     S
Ti79     Er81    10.0   .     S
Ti80     Ce229    10.0   .     S
Ti80     Er81    10.0   .     S
Er81     V95    10.001   .     S
Ti82     Ti83    10.0   .     S
Ti82     Er84    10.0   .     S
Ti83     Er84    10.0   .     S
Er84     V94    10.001   .     S
Ti85     Ti86    10.0   .     S
Ti85     Er87    10.0   .     S
Ti86     Ce175    10.0   .     S
Ti86     Er87    10.0   .     S
Er87     V96    10.001   .     S
Ti88     Ti89    10.0   .     S
Ti88     Er90    10.0   .     S
Ti89     Er90    10.0   .     S
Er90     V93    10.001   .     S
V91     V101    10.0   .     S
V91     V92    10.0   .     S
V91     V98    10.0   .     S
V91     V102    10.0   .     S
V91     V97    10.0   .     S
V91     Er105    10.001   .     S
V92     V94    10.0   .     S
V92     V93    10.0   .     S
V92     V101    10.0   .     S
V92     V102    10.0   .     S
V93     V96    10.0   .     S
V93     V102    10.0   .     S
V93     V94    10.0   .     S
V93     V100    10.0   .     S
V94     V100    10.0   .     S
V94     V95    10.0   .     S
V94     V101    10.0   .     S
V95     V101    10.0   .     S
V95     V97    10.0   .     S
V95     V100    10.0   .     S
V95     V99    10.0   .     S
V96     V100    10.0   .     S
V96     V99    10.0   .     S
V96     V102    10.0   .     S
V96     V98    10.0   .     S
V97     V101    10.0   .     S
V97     V98    10.0   .     S
V97     V99    10.0   .     S
V98     V102    10.0   .     S
V98     V99    10.0   .     S
V99     V100    10.0   .     S
Ti103     Ti104    10.0   .     S
Ti103     Er105    10.0   .     S
Ti104     Ce118    10.0   .     S
Ti104     Er105    10.0   .     S
Ce106     Ce108    9.999   .     S
Ce106     Ce107    9.999   .     S
Ce106     Ti266    10.0   .     S
Ce107     Ce108    9.999   .     S
Ce107     Ti146    10.0   .     S
Ce109     Ce111    9.999   .     S
Ce109     Ce110    9.999   .     S
Ce109     Ti206    10.0   .     S
Ce110     Ce111    9.999   .     S
Ce110     Ti269    10.0   .     S
Ce112     Ce114    9.999   .     S
Ce112     Ce113    9.999   .     S
Ce112     Ti149    10.0   .     S
Ce113     Ce114    9.999   .     S
Ce113     Ti209    10.0   .     S
Ce115     Ce117    9.999   .     S
Ce115     Ce116    9.999   .     S
Ce115     Ti191    10.0   .     S
Ce116     Ce117    9.999   .     S
Ce116     Ti125    10.0   .     S
Ce117     Ti244    10.0   .     S
Ce118     Ce119    9.999   .     S
Ce118     Ce120    9.999   .     S
Ce119     Ce120    9.999   .     S
Ce119     Ti196    10.0   .     S
Ce120     Ti152    10.0   .     S
Ce121     Ce123    9.999   .     S
Ce121     Ce122    9.999   .     S
Ce121     Ti140    10.0   .     S
Ce122     Ce123    9.999   .     S
Ce122     Ti197    10.0   .     S
Ti124     Ti125    10.0   1_556     S
Ti124     Er126    10.0   1_556     S
Ti125     Ti124    10.0   1_554     S
Ti125     Er126    10.0   .     S
Er126     Ti124    10.0   1_554     S
Er126     V159    10.001   .     S
Ti127     Ce174    10.0   .     S
Ti127     Ti128    10.0   1_556     S
Ti127     Er129    10.0   1_556     S
Ti128     Ce238    10.0   .     S
Ti128     Ti127    10.0   1_554     S
Ti128     Er129    10.0   .     S
Er129     Ti127    10.0   1_554     S
Er129     V158    10.001   .     S
Ti130     Ti131    10.0   1_556     S
Ti130     Er132    10.0   1_556     S
Ti131     Ti130    10.0   1_554     S
Ti131     Er132    10.0   .     S
Er132     Ti130    10.0   1_554     S
Er132     V163    10.001   .     S
Ti133     Ti134    10.0   1_556     S
Ti133     Er135    10.0   1_556     S
Ti134     Ce235    10.0   .     S
Ti134     Ti133    10.0   1_554     S
Ti134     Er135    10.0   .     S
Er135     Ti133    10.0   1_554     S
Er135     V165    10.001   .     S
Ti136     Ce230    10.0   .     S
Ti136     Ti137    10.0   .     S
Ti136     Er138    10.0   .     S
Ti137     Ce233    10.0   .     S
Ti137     Er138    10.0   .     S
Er138     V162    10.001   .     S
Ti139     Ti140    10.0   1_655     S
Ti139     Er141    10.0   1_655     S
Ti140     Ti139    10.0   1_455     S
Ti140     Er141    10.0   .     S
Er141     Ti139    10.0   1_455     S
Er141     V160    10.001   .     S
Ti142     Ti143    10.0   .     S
Ti142     Er144    10.0   .     S
Ti143     Er144    10.0   .     S
Er144     V157    10.001   .     S
Ti145     Ti146    10.0   .     S
Ti145     Er147    10.0   .     S
Ti146     Er147    10.0   .     S
Er147     V168    10.001   .     S
Ti148     Ti149    10.0   1_655     S
Ti148     Er150    10.0   1_655     S
Ti149     Ti148    10.0   1_455     S
Ti149     Er150    10.0   .     S
Er150     Ti148    10.0   1_455     S
Er150     V161    10.001   .     S
Ti151     Ti152    10.0   1_655     S
Ti151     Er153    10.0   1_655     S
Ti152     Ti151    10.0   1_455     S
Ti152     Er153    10.0   .     S
Er153     Ti151    10.0   1_455     S
Er153     V166    10.001   .     S
Ti154     Ti155    10.0   .     S
Ti154     Er156    10.0   .     S
Ti155     Er156    10.0   .     S
Er156     V167    10.001   .     S
V157     V166    10.0   .     S
V157     V158    10.0   1_556     S
V157     V164    10.0   .     S
V157     V159    10.0   1_556     S
V157     V162    10.0   1_556     S
V158     V166    10.0   1_554     S
V158     V157    10.0   1_554     S
V158     V162    10.0   .     S
V158     V160    10.0   .     S
V158     V165    10.0   1_455     S
V159     V164    10.0   1_554     S
V159     V157    10.0   1_554     S
V159     V162    10.0   .     S
V159     V161    10.0   .     S
V159     V163    10.0   1_455     S
V160     V168    10.0   1_455     S
V160     V165    10.0   1_455     S
V160     V162    10.0   .     S
V160     V161    10.0   .     S
V161     V162    10.0   .     S
V161     V168    10.0   1_455     S
V161     V163    10.0   1_455     S
V162     V157    10.0   1_554     S
V163     V168    10.0   .     S
V163     V161    10.0   1_655     S
V163     V167    10.0   1_554     S
V163     V164    10.0   1_654     S
V163     V159    10.0   1_655     S
V164     V159    10.0   1_556     S
V164     V167    10.0   1_455     S
V164     V163    10.0   1_456     S
V164     V166    10.0   .     S
V164     Er171    10.001   .     S
V165     V168    10.0   .     S
V165     V160    10.0   1_655     S
V165     V167    10.0   1_554     S
V165     V166    10.0   1_654     S
V165     V158    10.0   1_655     S
V166     V158    10.0   1_556     S
V166     V167    10.0   1_455     S
V166     V165    10.0   1_456     S
V167     V164    10.0   1_655     S
V167     V163    10.0   1_556     S
V167     V166    10.0   1_655     S
V167     V165    10.0   1_556     S
V167     V168    10.0   1_556     S
V168     V160    10.0   1_655     S
V168     V161    10.0   1_655     S
V168     V167    10.0   1_554     S
Ti169     Ti170    10.0   1_655     S
Ti169     Er171    10.0   1_655     S
Ti170     Ti169    10.0   1_455     S
Ti170     Er171    10.0   .     S
Er171     Ti169    10.0   1_455     S
Ce172     Ce174    9.999   .     S
Ce172     Ce173    9.999   .     S
Ce172     Ti251    10.0   .     S
Ce173     Ce174    9.999   .     S
Ce173     Ti182    10.0   .     S
Ce175     Ce177    9.999   .     S
Ce175     Ce176    9.999   .     S
Ce176     Ce177    9.999   .     S
Ce176     Ti203    10.0   .     S
Ce177     Ti256    10.0   .     S
Ce178     Ce180    9.999   .     S
Ce178     Ce179    9.999   .     S
Ce178     Ti194    10.0   .     S
Ce179     Ce180    9.999   .     S
Ce179     Ti257    10.0   .     S
Ti181     Ti182    10.0   1_655     S
Ti181     Er183    10.0   1_655     S
Ti182     Ti181    10.0   1_455     S
Ti182     Er183    10.0   .     S
Er183     Ti181    10.0   1_455     S
Er183     V219    10.001   .     S
Ti184     Ce237    10.0   .     S
Ti184     Ti185    10.0   1_655     S
Ti184     Er186    10.0   1_655     S
Ti185     Ce239    10.0   .     S
Ti185     Ti184    10.0   1_455     S
Ti185     Er186    10.0   .     S
Er186     Ti184    10.0   1_455     S
Er186     V218    10.001   .     S
Ti187     Ti188    10.0   1_655     S
Ti187     Er189    10.0   1_655     S
Ti188     Ti187    10.0   1_455     S
Ti188     Er189    10.0   .     S
Er189     Ti187    10.0   1_455     S
Er189     V223    10.001   .     S
Ti190     Ti191    10.0   1_655     S
Ti190     Er192    10.0   1_655     S
Ti191     Ti190    10.0   1_455     S
Ti191     Er192    10.0   .     S
Er192     Ti190    10.0   1_455     S
Er192     V220    10.001   .     S
Ti193     Ti194    10.0   1_565     S
Ti193     Er195    10.0   1_565     S
Ti194     Ti193    10.0   1_545     S
Ti194     Er195    10.0   .     S
Er195     Ti193    10.0   1_545     S
Er195     V214    10.001   .     S
Ti196     Ti197    10.0   .     S
Ti196     Er198    10.0   .     S
Ti197     Er198    10.0   .     S
Er198     V216    10.001   .     S
Ti199     Ti200    10.0   .     S
Ti199     Er201    10.0   .     S
Ti200     Er201    10.0   .     S
Er201     V217    10.001   .     S
Ti202     Ti203    10.0   1_565     S
Ti202     Er204    10.0   1_565     S
Ti203     Ti202    10.0   1_545     S
Ti203     Er204    10.0   .     S
Er204     Ti202    10.0   1_545     S
Er204     V221    10.001   .     S
Ti205     Ti206    10.0   1_565     S
Ti205     Er207    10.0   1_565     S
Ti206     Ti205    10.0   1_545     S
Ti206     Er207    10.0   .     S
Er207     Ti205    10.0   1_545     S
Er207     V215    10.001   .     S
Ti208     Ti209    10.0   .     S
Ti208     Er210    10.0   .     S
Ti209     Er210    10.0   .     S
Er210     V225    10.001   .     S
Ti211     Ti212    10.0   .     S
Ti211     Er213    10.0   .     S
Ti212     Er213    10.0   .     S
Er213     V224    10.001   .     S
V214     V225    10.0   1_545     S
V214     V220    10.0   1_545     S
V214     V216    10.0   .     S
V214     V218    10.0   .     S
V214     V215    10.0   .     S
V215     V216    10.0   .     S
V215     V219    10.0   .     S
V215     V225    10.0   1_545     S
V215     V223    10.0   1_545     S
V216     V218    10.0   .     S
V216     V219    10.0   .     S
V216     V217    10.0   1_455     S
V217     V222    10.0   .     S
V217     V219    10.0   1_655     S
V217     V221    10.0   .     S
V217     V218    10.0   1_655     S
V217     V216    10.0   1_655     S
V218     V221    10.0   1_455     S
V218     V217    10.0   1_455     S
V218     V220    10.0   1_545     S
V219     V222    10.0   1_455     S
V219     V217    10.0   1_455     S
V219     V223    10.0   1_545     S
V220     V225    10.0   .     S
V220     V214    10.0   1_565     S
V220     V224    10.0   1_455     S
V220     V221    10.0   1_465     S
V220     V218    10.0   1_565     S
V221     V218    10.0   1_655     S
V221     V224    10.0   1_545     S
V221     V220    10.0   1_645     S
V221     V222    10.0   .     S
V222     V219    10.0   1_655     S
V222     V224    10.0   1_545     S
V222     V223    10.0   1_645     S
V222     Er228    10.001   .     S
V223     V225    10.0   .     S
V223     V215    10.0   1_565     S
V223     V224    10.0   1_455     S
V223     V222    10.0   1_465     S
V223     V219    10.0   1_565     S
V224     V220    10.0   1_655     S
V224     V221    10.0   1_565     S
V224     V223    10.0   1_655     S
V224     V222    10.0   1_565     S
V224     V225    10.0   1_655     S
V225     V214    10.0   1_565     S
V225     V215    10.0   1_565     S
V225     V224    10.0   1_455     S
Ti226     Ti227    10.0   1_565     S
Ti226     Er228    10.0   1_565     S
Ti227     Ti226    10.0   1_545     S
Ti227     Er228    10.0   .     S
Er228     Ti226    10.0   1_545     S
Ce229     Ce230    9.999   .     S
Ce229     Ce231    9.999   .     S
Ce230     Ce231    9.999   .     S
Ce231     Ti263    10.0   .     S
Ce232     Ce234    9.999   .     S
Ce232     Ce233    9.999   .     S
Ce232     Ti254    10.0   .     S
Ce233     Ce234    9.999   .     S
Ce235     Ce237    9.999   .     S
Ce235     Ce236    9.999   .     S
Ce236     Ce237    9.999   .     S
Ce236     Ti242    10.0   .     S
Ce238     Ce239    9.999   .     S
Ce238     Ce240    9.999   .     S
Ce239     Ce240    9.999   .     S
Ce240     Ti245    10.0   .     S
Ti241     Ti242    10.0   1_565     S
Ti241     Er243    10.0   1_565     S
Ti242     Ti241    10.0   1_545     S
Ti242     Er243    10.0   .     S
Er243     Ti241    10.0   1_545     S
Er243     V279    10.001   .     S
Ti244     Ti245    10.0   1_565     S
Ti244     Er246    10.0   1_565     S
Ti245     Ti244    10.0   1_545     S
Ti245     Er246    10.0   .     S
Er246     Ti244    10.0   1_545     S
Er246     V278    10.001   .     S
Ti247     Ti248    10.0   1_565     S
Ti247     Er249    10.0   1_565     S
Ti248     Ti247    10.0   1_545     S
Ti248     Er249    10.0   .     S
Er249     Ti247    10.0   1_545     S
Er249     V283    10.001   .     S
Ti250     Ti251    10.0   1_565     S
Ti250     Er252    10.0   1_565     S
Ti251     Ti250    10.0   1_545     S
Ti251     Er252    10.0   .     S
Er252     Ti250    10.0   1_545     S
Er252     V280    10.001   .     S
Ti253     Ti254    10.0   1_556     S
Ti253     Er255    10.0   1_556     S
Ti254     Ti253    10.0   1_554     S
Ti254     Er255    10.0   .     S
Er255     Ti253    10.0   1_554     S
Er255     V274    10.001   .     S
Ti256     Ti257    10.0   .     S
Ti256     Er258    10.0   .     S
Ti257     Er258    10.0   .     S
Er258     V276    10.001   .     S
Ti259     Ti260    10.0   .     S
Ti259     Er261    10.0   .     S
Ti260     Er261    10.0   .     S
Er261     V277    10.001   .     S
Ti262     Ti263    10.0   1_556     S
Ti262     Er264    10.0   1_556     S
Ti263     Ti262    10.0   1_554     S
Ti263     Er264    10.0   .     S
Er264     Ti262    10.0   1_554     S
Er264     V281    10.001   .     S
Ti265     Ti266    10.0   1_556     S
Ti265     Er267    10.0   1_556     S
Ti266     Ti265    10.0   1_554     S
Ti266     Er267    10.0   .     S
Er267     Ti265    10.0   1_554     S
Er267     V275    10.001   .     S
Ti268     Ti269    10.0   .     S
Ti268     Er270    10.0   .     S
Ti269     Er270    10.0   .     S
Er270     V285    10.001   .     S
Ti271     Ti272    10.0   .     S
Ti271     Er273    10.0   .     S
Ti272     Er273    10.0   .     S
Er273     V284    10.001   .     S
V274     V285    10.0   1_554     S
V274     V280    10.0   1_554     S
V274     V276    10.0   .     S
V274     V278    10.0   .     S
V274     V275    10.0   .     S
V275     V276    10.0   .     S
V275     V279    10.0   .     S
V275     V285    10.0   1_554     S
V275     V283    10.0   1_554     S
V276     V278    10.0   .     S
V276     V279    10.0   .     S
V276     V277    10.0   1_545     S
V277     V282    10.0   .     S
V277     V279    10.0   1_565     S
V277     V281    10.0   .     S
V277     V278    10.0   1_565     S
V277     V276    10.0   1_565     S
V278     V281    10.0   1_545     S
V278     V277    10.0   1_545     S
V278     V280    10.0   1_554     S
V279     V282    10.0   1_545     S
V279     V277    10.0   1_545     S
V279     V283    10.0   1_554     S
V280     V285    10.0   .     S
V280     V274    10.0   1_556     S
V280     V284    10.0   1_545     S
V280     V281    10.0   1_546     S
V280     V278    10.0   1_556     S
V281     V278    10.0   1_565     S
V281     V284    10.0   1_554     S
V281     V280    10.0   1_564     S
V281     V282    10.0   .     S
V282     V279    10.0   1_565     S
V282     V284    10.0   1_554     S
V282     V283    10.0   1_564     S
V282     Er288    10.001   .     S
V283     V285    10.0   .     S
V283     V275    10.0   1_556     S
V283     V284    10.0   1_545     S
V283     V282    10.0   1_546     S
V283     V279    10.0   1_556     S
V284     V280    10.0   1_565     S
V284     V281    10.0   1_556     S
V284     V283    10.0   1_565     S
V284     V282    10.0   1_556     S
V284     V285    10.0   1_565     S
V285     V274    10.0   1_556     S
V285     V275    10.0   1_556     S
V285     V284    10.0   1_545     S
Ti286     Ti287    10.0   1_556     S
Ti286     Er288    10.0   1_556     S
Ti287     Ti286    10.0   1_554     S
Ti287     Er288    10.0   .     S
Er288     Ti286    10.0   1_554     S
