data_ntya
_audit_creation_date              2020-02-04
_audit_creation_method            'Pymatgen'
_symmetry_space_group_name_H-M    'P1'
_symmetry_Int_Tables_number       1
loop_
_symmetry_equiv_pos_as_xyz
  x,y,z
_cell_length_a                    160.2979
_cell_length_b                    160.2979
_cell_length_c                    160.2979
_cell_angle_alpha                 90.0
_cell_angle_beta                 90.0
_cell_angle_gamma                 90.0
loop_
_atom_site_label
_atom_site_type_symbol
_atom_site_fract_x
_atom_site_fract_y
_atom_site_fract_z
Ti1     Ti     0.7743   0.1375   0.8183
Ti2     Ti     0.8183   0.1375   0.7743
Er3     Er     0.7925   0.0855   0.7514
Er4     Er     0.7486   0.0855   0.7075
V5     V     0.7709   0.0313   0.7291
Er6     Er     0.7514   0.0855   0.7925
Er7     Er     0.7075   0.0855   0.7486
V8     V     0.7291   0.0313   0.7709
Ti9     Ti     0.6817   0.1375   0.7257
Ti10     Ti     0.7257   0.1375   0.6817
Er11     Er     0.5855   0.2514   0.7925
Er12     Er     0.5855   0.2075   0.7486
V13     V     0.5313   0.2291   0.7709
Ti14     Ti     0.6375   0.2743   0.8183
Ti15     Ti     0.6375   0.3183   0.7743
Er16     Er     0.5855   0.2486   0.7075
Er17     Er     0.5855   0.2925   0.7514
V18     V     0.5313   0.2709   0.7291
Ti19     Ti     0.6375   0.2257   0.6817
Ti20     Ti     0.6375   0.1817   0.7257
Er21     Er     0.7925   0.2514   0.5855
Er22     Er     0.7486   0.2075   0.5855
V23     V     0.7709   0.2291   0.5313
Ti24     Ti     0.6817   0.2257   0.6375
Ti25     Ti     0.7257   0.1817   0.6375
Er26     Er     0.7075   0.2486   0.5855
Er27     Er     0.7514   0.2925   0.5855
V28     V     0.7291   0.2709   0.5313
Ti29     Ti     0.8183   0.2743   0.6375
Ti30     Ti     0.7743   0.3183   0.6375
Ti31     Ti     0.8183   0.2257   0.8625
Ti32     Ti     0.7743   0.1817   0.8625
Er33     Er     0.7925   0.2486   0.9145
Er34     Er     0.7486   0.2925   0.9145
V35     V     0.7709   0.2709   0.9687
Er36     Er     0.7514   0.2075   0.9145
Er37     Er     0.7075   0.2514   0.9145
V38     V     0.7291   0.2291   0.9687
Ti39     Ti     0.6817   0.2743   0.8625
Ti40     Ti     0.7257   0.3183   0.8625
Er41     Er     0.7925   0.4145   0.7486
Er42     Er     0.7486   0.4145   0.7925
V43     V     0.7709   0.4687   0.7709
Ti44     Ti     0.6817   0.3625   0.7743
Ti45     Ti     0.7257   0.3625   0.8183
Er46     Er     0.7514   0.4145   0.7075
Er47     Er     0.7075   0.4145   0.7514
V48     V     0.7291   0.4687   0.7291
Ti49     Ti     0.8183   0.3625   0.7257
Ti50     Ti     0.7743   0.3625   0.6817
Ti51     Ti     0.8625   0.2257   0.8183
Ti52     Ti     0.8625   0.1817   0.7743
Er53     Er     0.9145   0.2486   0.7925
Er54     Er     0.9145   0.2925   0.7486
V55     V     0.9687   0.2709   0.7709
Er56     Er     0.9145   0.2075   0.7514
Er57     Er     0.9145   0.2514   0.7075
V58     V     0.9687   0.2291   0.7291
Ti59     Ti     0.8625   0.2743   0.6817
Ti60     Ti     0.8625   0.3183   0.7257
Er61     Er     0.2075   0.2514   0.5855
Er62     Er     0.2514   0.2075   0.5855
V63     V     0.2291   0.2291   0.5313
Ti64     Ti     0.2743   0.1817   0.6375
Ti65     Ti     0.3183   0.2257   0.6375
Er66     Er     0.2486   0.2925   0.5855
Er67     Er     0.2925   0.2486   0.5855
V68     V     0.2709   0.2709   0.5313
Ti69     Ti     0.1817   0.2743   0.6375
Ti70     Ti     0.2257   0.3183   0.6375
Ti71     Ti     0.2257   0.1817   0.8625
Ti72     Ti     0.1817   0.2257   0.8625
Er73     Er     0.2075   0.2486   0.9145
Er74     Er     0.2514   0.2925   0.9145
V75     V     0.2291   0.2709   0.9687
Er76     Er     0.2486   0.2075   0.9145
Er77     Er     0.2925   0.2514   0.9145
V78     V     0.2709   0.2291   0.9687
Ti79     Ti     0.3183   0.2743   0.8625
Ti80     Ti     0.2743   0.3183   0.8625
Er81     Er     0.2514   0.4145   0.7925
Er82     Er     0.2075   0.4145   0.7486
V83     V     0.2291   0.4687   0.7709
Ti84     Ti     0.2257   0.3625   0.6817
Ti85     Ti     0.1817   0.3625   0.7257
Er86     Er     0.2486   0.4145   0.7075
Er87     Er     0.2925   0.4145   0.7514
V88     V     0.2709   0.4687   0.7291
Ti89     Ti     0.2743   0.3625   0.8183
Ti90     Ti     0.3183   0.3625   0.7743
Er91     Er     0.4145   0.2514   0.7925
Er92     Er     0.4145   0.2075   0.7486
V93     V     0.4687   0.2291   0.7709
Ti94     Ti     0.3625   0.2257   0.6817
Ti95     Ti     0.3625   0.1817   0.7257
Er96     Er     0.4145   0.2486   0.7075
Er97     Er     0.4145   0.2925   0.7514
V98     V     0.4687   0.2709   0.7291
Ti99     Ti     0.3625   0.2743   0.8183
Ti100     Ti     0.3625   0.3183   0.7743
Ti101     Ti     0.2257   0.1375   0.8183
Ti102     Ti     0.1817   0.1375   0.7743
Er103     Er     0.2486   0.0855   0.7925
Er104     Er     0.2925   0.0855   0.7486
V105     V     0.2709   0.0313   0.7709
Er106     Er     0.2075   0.0855   0.7514
Er107     Er     0.2514   0.0855   0.7075
V108     V     0.2291   0.0313   0.7291
Ti109     Ti     0.2743   0.1375   0.6817
Ti110     Ti     0.3183   0.1375   0.7257
Ti111     Ti     0.1375   0.2257   0.8183
Ti112     Ti     0.1375   0.1817   0.7743
Er113     Er     0.0855   0.2486   0.7925
Er114     Er     0.0855   0.2925   0.7486
V115     V     0.0313   0.2709   0.7709
Er116     Er     0.0855   0.2075   0.7514
Er117     Er     0.0855   0.2514   0.7075
V118     V     0.0313   0.2291   0.7291
Ti119     Ti     0.1375   0.2743   0.6817
Ti120     Ti     0.1375   0.3183   0.7257
Er121     Er     0.5855   0.7925   0.7486
Er122     Er     0.5855   0.7486   0.7925
V123     V     0.5313   0.7709   0.7709
Ti124     Ti     0.6375   0.6817   0.7743
Ti125     Ti     0.6375   0.7257   0.8183
Er126     Er     0.5855   0.7514   0.7075
Er127     Er     0.5855   0.7075   0.7514
V128     V     0.5313   0.7291   0.7291
Ti129     Ti     0.6375   0.8183   0.7257
Ti130     Ti     0.6375   0.7743   0.6817
Er131     Er     0.7925   0.7486   0.5855
Er132     Er     0.7486   0.7925   0.5855
V133     V     0.7709   0.7709   0.5313
Ti134     Ti     0.6817   0.7743   0.6375
Ti135     Ti     0.7257   0.8183   0.6375
Er136     Er     0.7514   0.7075   0.5855
Er137     Er     0.7075   0.7514   0.5855
V138     V     0.7291   0.7291   0.5313
Ti139     Ti     0.8183   0.7257   0.6375
Ti140     Ti     0.7743   0.6817   0.6375
Er141     Er     0.7925   0.5855   0.7486
Er142     Er     0.7486   0.5855   0.7925
V143     V     0.7709   0.5313   0.7709
Ti144     Ti     0.6817   0.6375   0.7743
Ti145     Ti     0.7257   0.6375   0.8183
Er146     Er     0.7514   0.5855   0.7075
Er147     Er     0.7075   0.5855   0.7514
V148     V     0.7291   0.5313   0.7291
Ti149     Ti     0.8183   0.6375   0.7257
Ti150     Ti     0.7743   0.6375   0.6817
Ti151     Ti     0.8183   0.7743   0.8625
Ti152     Ti     0.7743   0.8183   0.8625
Er153     Er     0.7925   0.7514   0.9145
Er154     Er     0.7486   0.7075   0.9145
V155     V     0.7709   0.7291   0.9687
Er156     Er     0.7514   0.7925   0.9145
Er157     Er     0.7075   0.7486   0.9145
V158     V     0.7291   0.7709   0.9687
Ti159     Ti     0.6817   0.7257   0.8625
Ti160     Ti     0.7257   0.6817   0.8625
Ti161     Ti     0.8183   0.8625   0.7743
Ti162     Ti     0.7743   0.8625   0.8183
Er163     Er     0.7514   0.9145   0.7925
Er164     Er     0.7075   0.9145   0.7486
V165     V     0.7291   0.9687   0.7709
Er166     Er     0.7925   0.9145   0.7514
Er167     Er     0.7486   0.9145   0.7075
V168     V     0.7709   0.9687   0.7291
Ti169     Ti     0.7257   0.8625   0.6817
Ti170     Ti     0.6817   0.8625   0.7257
Ti171     Ti     0.8625   0.7743   0.8183
Ti172     Ti     0.8625   0.8183   0.7743
Er173     Er     0.9145   0.7925   0.7514
Er174     Er     0.9145   0.7486   0.7075
V175     V     0.9687   0.7709   0.7291
Er176     Er     0.9145   0.7514   0.7925
Er177     Er     0.9145   0.7075   0.7486
V178     V     0.9687   0.7291   0.7709
Ti179     Ti     0.8625   0.6817   0.7257
Ti180     Ti     0.8625   0.7257   0.6817
Ti181     Ti     0.1375   0.8183   0.7743
Ti182     Ti     0.1375   0.7743   0.8183
Er183     Er     0.0855   0.7514   0.7925
Er184     Er     0.0855   0.7075   0.7486
V185     V     0.0313   0.7291   0.7709
Er186     Er     0.0855   0.7925   0.7514
Er187     Er     0.0855   0.7486   0.7075
V188     V     0.0313   0.7709   0.7291
Ti189     Ti     0.1375   0.7257   0.6817
Ti190     Ti     0.1375   0.6817   0.7257
Er191     Er     0.2514   0.5855   0.7925
Er192     Er     0.2075   0.5855   0.7486
V193     V     0.2291   0.5313   0.7709
Ti194     Ti     0.2743   0.6375   0.8183
Ti195     Ti     0.3183   0.6375   0.7743
Er196     Er     0.2486   0.5855   0.7075
Er197     Er     0.2925   0.5855   0.7514
V198     V     0.2709   0.5313   0.7291
Ti199     Ti     0.2257   0.6375   0.6817
Ti200     Ti     0.1817   0.6375   0.7257
Er201     Er     0.2514   0.7925   0.5855
Er202     Er     0.2075   0.7486   0.5855
V203     V     0.2291   0.7709   0.5313
Ti204     Ti     0.2257   0.6817   0.6375
Ti205     Ti     0.1817   0.7257   0.6375
Er206     Er     0.2486   0.7075   0.5855
Er207     Er     0.2925   0.7514   0.5855
V208     V     0.2709   0.7291   0.5313
Ti209     Ti     0.2743   0.8183   0.6375
Ti210     Ti     0.3183   0.7743   0.6375
Ti211     Ti     0.2257   0.8625   0.8183
Ti212     Ti     0.1817   0.8625   0.7743
Er213     Er     0.2486   0.9145   0.7925
Er214     Er     0.2925   0.9145   0.7486
V215     V     0.2709   0.9687   0.7709
Er216     Er     0.2075   0.9145   0.7514
Er217     Er     0.2514   0.9145   0.7075
V218     V     0.2291   0.9687   0.7291
Ti219     Ti     0.2743   0.8625   0.6817
Ti220     Ti     0.3183   0.8625   0.7257
Er221     Er     0.4145   0.7925   0.7486
Er222     Er     0.4145   0.7486   0.7925
V223     V     0.4687   0.7709   0.7709
Ti224     Ti     0.3625   0.7743   0.6817
Ti225     Ti     0.3625   0.8183   0.7257
Er226     Er     0.4145   0.7075   0.7514
Er227     Er     0.4145   0.7514   0.7075
V228     V     0.4687   0.7291   0.7291
Ti229     Ti     0.3625   0.7257   0.8183
Ti230     Ti     0.3625   0.6817   0.7743
Ti231     Ti     0.2257   0.8183   0.8625
Ti232     Ti     0.1817   0.7743   0.8625
Er233     Er     0.2486   0.7925   0.9145
Er234     Er     0.2925   0.7486   0.9145
V235     V     0.2709   0.7709   0.9687
Er236     Er     0.2075   0.7514   0.9145
Er237     Er     0.2514   0.7075   0.9145
V238     V     0.2291   0.7291   0.9687
Ti239     Ti     0.2743   0.6817   0.8625
Ti240     Ti     0.3183   0.7257   0.8625
Er241     Er     0.5855   0.2075   0.2514
Er242     Er     0.5855   0.2514   0.2075
V243     V     0.5313   0.2291   0.2291
Ti244     Ti     0.6375   0.2743   0.1817
Ti245     Ti     0.6375   0.3183   0.2257
Er246     Er     0.5855   0.2486   0.2925
Er247     Er     0.5855   0.2925   0.2486
V248     V     0.5313   0.2709   0.2709
Ti249     Ti     0.6375   0.1817   0.2743
Ti250     Ti     0.6375   0.2257   0.3183
Ti251     Ti     0.8625   0.2257   0.1817
Ti252     Ti     0.8625   0.1817   0.2257
Er253     Er     0.9145   0.2075   0.2486
Er254     Er     0.9145   0.2514   0.2925
V255     V     0.9687   0.2291   0.2709
Er256     Er     0.9145   0.2486   0.2075
Er257     Er     0.9145   0.2925   0.2514
V258     V     0.9687   0.2709   0.2291
Ti259     Ti     0.8625   0.3183   0.2743
Ti260     Ti     0.8625   0.2743   0.3183
Er261     Er     0.7925   0.2514   0.4145
Er262     Er     0.7486   0.2075   0.4145
V263     V     0.7709   0.2291   0.4687
Ti264     Ti     0.6817   0.2257   0.3625
Ti265     Ti     0.7257   0.1817   0.3625
Er266     Er     0.7075   0.2486   0.4145
Er267     Er     0.7514   0.2925   0.4145
V268     V     0.7291   0.2709   0.4687
Ti269     Ti     0.8183   0.2743   0.3625
Ti270     Ti     0.7743   0.3183   0.3625
Er271     Er     0.7925   0.4145   0.2514
Er272     Er     0.7486   0.4145   0.2075
V273     V     0.7709   0.4687   0.2291
Ti274     Ti     0.6817   0.3625   0.2257
Ti275     Ti     0.7257   0.3625   0.1817
Er276     Er     0.7075   0.4145   0.2486
Er277     Er     0.7514   0.4145   0.2925
V278     V     0.7291   0.4687   0.2709
Ti279     Ti     0.8183   0.3625   0.2743
Ti280     Ti     0.7743   0.3625   0.3183
Ti281     Ti     0.8183   0.2257   0.1375
Ti282     Ti     0.7743   0.1817   0.1375
Er283     Er     0.7925   0.2486   0.0855
Er284     Er     0.7486   0.2925   0.0855
V285     V     0.7709   0.2709   0.0313
Er286     Er     0.7514   0.2075   0.0855
Er287     Er     0.7075   0.2514   0.0855
V288     V     0.7291   0.2291   0.0313
Ti289     Ti     0.6817   0.2743   0.1375
Ti290     Ti     0.7257   0.3183   0.1375
Ti291     Ti     0.8183   0.1375   0.2257
Ti292     Ti     0.7743   0.1375   0.1817
Er293     Er     0.7925   0.0855   0.2486
Er294     Er     0.7486   0.0855   0.2925
V295     V     0.7709   0.0313   0.2709
Er296     Er     0.7514   0.0855   0.2075
Er297     Er     0.7075   0.0855   0.2514
V298     V     0.7291   0.0313   0.2291
Ti299     Ti     0.6817   0.1375   0.2743
Ti300     Ti     0.7257   0.1375   0.3183
Ti301     Ti     0.8183   0.7743   0.1375
Ti302     Ti     0.7743   0.8183   0.1375
Er303     Er     0.7514   0.7925   0.0855
Er304     Er     0.7075   0.7486   0.0855
V305     V     0.7291   0.7709   0.0313
Er306     Er     0.7925   0.7514   0.0855
Er307     Er     0.7486   0.7075   0.0855
V308     V     0.7709   0.7291   0.0313
Ti309     Ti     0.7257   0.6817   0.1375
Ti310     Ti     0.6817   0.7257   0.1375
Er311     Er     0.5855   0.7925   0.2514
Er312     Er     0.5855   0.7486   0.2075
V313     V     0.5313   0.7709   0.2291
Ti314     Ti     0.6375   0.6817   0.2257
Ti315     Ti     0.6375   0.7257   0.1817
Er316     Er     0.5855   0.7075   0.2486
Er317     Er     0.5855   0.7514   0.2925
V318     V     0.5313   0.7291   0.2709
Ti319     Ti     0.6375   0.8183   0.2743
Ti320     Ti     0.6375   0.7743   0.3183
Er321     Er     0.7925   0.5855   0.2514
Er322     Er     0.7486   0.5855   0.2075
V323     V     0.7709   0.5313   0.2291
Ti324     Ti     0.6817   0.6375   0.2257
Ti325     Ti     0.7257   0.6375   0.1817
Er326     Er     0.7075   0.5855   0.2486
Er327     Er     0.7514   0.5855   0.2925
V328     V     0.7291   0.5313   0.2709
Ti329     Ti     0.8183   0.6375   0.2743
Ti330     Ti     0.7743   0.6375   0.3183
Ti331     Ti     0.8183   0.8625   0.2257
Ti332     Ti     0.7743   0.8625   0.1817
Er333     Er     0.7925   0.9145   0.2486
Er334     Er     0.7486   0.9145   0.2925
V335     V     0.7709   0.9687   0.2709
Er336     Er     0.7514   0.9145   0.2075
Er337     Er     0.7075   0.9145   0.2514
V338     V     0.7291   0.9687   0.2291
Ti339     Ti     0.6817   0.8625   0.2743
Ti340     Ti     0.7257   0.8625   0.3183
Er341     Er     0.7925   0.7486   0.4145
Er342     Er     0.7486   0.7925   0.4145
V343     V     0.7709   0.7709   0.4687
Ti344     Ti     0.6817   0.7743   0.3625
Ti345     Ti     0.7257   0.8183   0.3625
Er346     Er     0.7514   0.7075   0.4145
Er347     Er     0.7075   0.7514   0.4145
V348     V     0.7291   0.7291   0.4687
Ti349     Ti     0.8183   0.7257   0.3625
Ti350     Ti     0.7743   0.6817   0.3625
Ti351     Ti     0.8625   0.8183   0.2257
Ti352     Ti     0.8625   0.7743   0.1817
Er353     Er     0.9145   0.7514   0.2075
Er354     Er     0.9145   0.7075   0.2514
V355     V     0.9687   0.7291   0.2291
Er356     Er     0.9145   0.7925   0.2486
Er357     Er     0.9145   0.7486   0.2925
V358     V     0.9687   0.7709   0.2709
Ti359     Ti     0.8625   0.6817   0.2743
Ti360     Ti     0.8625   0.7257   0.3183
Ti361     Ti     0.2257   0.1817   0.1375
Ti362     Ti     0.1817   0.2257   0.1375
Er363     Er     0.2486   0.2075   0.0855
Er364     Er     0.2925   0.2514   0.0855
V365     V     0.2709   0.2291   0.0313
Er366     Er     0.2075   0.2486   0.0855
Er367     Er     0.2514   0.2925   0.0855
V368     V     0.2291   0.2709   0.0313
Ti369     Ti     0.2743   0.3183   0.1375
Ti370     Ti     0.3183   0.2743   0.1375
Ti371     Ti     0.1817   0.1375   0.2257
Ti372     Ti     0.2257   0.1375   0.1817
Er373     Er     0.2075   0.0855   0.2486
Er374     Er     0.2514   0.0855   0.2925
V375     V     0.2291   0.0313   0.2709
Er376     Er     0.2486   0.0855   0.2075
Er377     Er     0.2925   0.0855   0.2514
V378     V     0.2709   0.0313   0.2291
Ti379     Ti     0.3183   0.1375   0.2743
Ti380     Ti     0.2743   0.1375   0.3183
Ti381     Ti     0.1375   0.1817   0.2257
Ti382     Ti     0.1375   0.2257   0.1817
Er383     Er     0.0855   0.2486   0.2075
Er384     Er     0.0855   0.2925   0.2514
V385     V     0.0313   0.2709   0.2291
Er386     Er     0.0855   0.2075   0.2486
Er387     Er     0.0855   0.2514   0.2925
V388     V     0.0313   0.2291   0.2709
Ti389     Ti     0.1375   0.2743   0.3183
Ti390     Ti     0.1375   0.3183   0.2743
Er391     Er     0.4145   0.2075   0.2514
Er392     Er     0.4145   0.2514   0.2075
V393     V     0.4687   0.2291   0.2291
Ti394     Ti     0.3625   0.2743   0.1817
Ti395     Ti     0.3625   0.3183   0.2257
Er396     Er     0.4145   0.2486   0.2925
Er397     Er     0.4145   0.2925   0.2486
V398     V     0.4687   0.2709   0.2709
Ti399     Ti     0.3625   0.1817   0.2743
Ti400     Ti     0.3625   0.2257   0.3183
Er401     Er     0.2075   0.2514   0.4145
Er402     Er     0.2514   0.2075   0.4145
V403     V     0.2291   0.2291   0.4687
Ti404     Ti     0.2743   0.1817   0.3625
Ti405     Ti     0.3183   0.2257   0.3625
Er406     Er     0.2486   0.2925   0.4145
Er407     Er     0.2925   0.2486   0.4145
V408     V     0.2709   0.2709   0.4687
Ti409     Ti     0.1817   0.2743   0.3625
Ti410     Ti     0.2257   0.3183   0.3625
Er411     Er     0.2075   0.4145   0.2514
Er412     Er     0.2514   0.4145   0.2075
V413     V     0.2291   0.4687   0.2291
Ti414     Ti     0.2743   0.3625   0.1817
Ti415     Ti     0.3183   0.3625   0.2257
Er416     Er     0.2486   0.4145   0.2925
Er417     Er     0.2925   0.4145   0.2486
V418     V     0.2709   0.4687   0.2709
Ti419     Ti     0.1817   0.3625   0.2743
Ti420     Ti     0.2257   0.3625   0.3183
Er421     Er     0.2075   0.5855   0.2514
Er422     Er     0.2514   0.5855   0.2075
V423     V     0.2291   0.5313   0.2291
Ti424     Ti     0.2743   0.6375   0.1817
Ti425     Ti     0.3183   0.6375   0.2257
Er426     Er     0.2486   0.5855   0.2925
Er427     Er     0.2925   0.5855   0.2486
V428     V     0.2709   0.5313   0.2709
Ti429     Ti     0.1817   0.6375   0.2743
Ti430     Ti     0.2257   0.6375   0.3183
Ti431     Ti     0.2257   0.8625   0.1817
Ti432     Ti     0.1817   0.8625   0.2257
Er433     Er     0.2486   0.9145   0.2075
Er434     Er     0.2925   0.9145   0.2514
V435     V     0.2709   0.9687   0.2291
Er436     Er     0.2075   0.9145   0.2486
Er437     Er     0.2514   0.9145   0.2925
V438     V     0.2291   0.9687   0.2709
Ti439     Ti     0.2743   0.8625   0.3183
Ti440     Ti     0.3183   0.8625   0.2743
Er441     Er     0.4145   0.7925   0.2514
Er442     Er     0.4145   0.7486   0.2075
V443     V     0.4687   0.7709   0.2291
Ti444     Ti     0.3625   0.6817   0.2257
Ti445     Ti     0.3625   0.7257   0.1817
Er446     Er     0.4145   0.7075   0.2486
Er447     Er     0.4145   0.7514   0.2925
V448     V     0.4687   0.7291   0.2709
Ti449     Ti     0.3625   0.8183   0.2743
Ti450     Ti     0.3625   0.7743   0.3183
Er451     Er     0.2514   0.7925   0.4145
Er452     Er     0.2075   0.7486   0.4145
V453     V     0.2291   0.7709   0.4687
Ti454     Ti     0.2257   0.6817   0.3625
Ti455     Ti     0.1817   0.7257   0.3625
Er456     Er     0.2486   0.7075   0.4145
Er457     Er     0.2925   0.7514   0.4145
V458     V     0.2709   0.7291   0.4687
Ti459     Ti     0.2743   0.8183   0.3625
Ti460     Ti     0.3183   0.7743   0.3625
Ti461     Ti     0.2257   0.8183   0.1375
Ti462     Ti     0.1817   0.7743   0.1375
Er463     Er     0.2486   0.7925   0.0855
Er464     Er     0.2925   0.7486   0.0855
V465     V     0.2709   0.7709   0.0313
Er466     Er     0.2075   0.7514   0.0855
Er467     Er     0.2514   0.7075   0.0855
V468     V     0.2291   0.7291   0.0313
Ti469     Ti     0.2743   0.6817   0.1375
Ti470     Ti     0.3183   0.7257   0.1375
Ti471     Ti     0.1375   0.8183   0.2257
Ti472     Ti     0.1375   0.7743   0.1817
Er473     Er     0.0855   0.7514   0.2075
Er474     Er     0.0855   0.7075   0.2514
V475     V     0.0313   0.7291   0.2291
Er476     Er     0.0855   0.7925   0.2486
Er477     Er     0.0855   0.7486   0.2925
V478     V     0.0313   0.7709   0.2709
Ti479     Ti     0.1375   0.6817   0.2743
Ti480     Ti     0.1375   0.7257   0.3183
loop_
_geom_bond_atom_site_label_1
_geom_bond_atom_site_label_2
_geom_bond_distance
_geom_bond_site_symmetry_2
_ccdc_geom_bond_type
Ti1     Er6    10.008   .     S
Ti1     Ti32    10.013   .     S
Ti1     Ti2    9.981   .     S
Ti2     Er3    10.008   .     S
Ti2     Ti52    10.013   .     S
Er3     V5    10.005   .     S
Er3     Er4    9.954   .     S
Er4     V5    10.005   .     S
Er4     Ti10    10.008   .     S
V5     V168    10.047   1_545     S
Er6     V8    10.005   .     S
Er6     Er7    9.954   .     S
Er7     V8    10.005   .     S
Er7     Ti9    10.008   .     S
V8     V165    10.047   1_545     S
Ti9     Ti20    10.013   .     S
Ti9     Ti10    9.981   .     S
Ti10     Ti25    10.013   .     S
Er11     V13    10.005   .     S
Er11     Ti14    10.008   .     S
Er11     Er12    9.954   .     S
Er12     V13    10.005   .     S
Er12     Ti20    10.008   .     S
V13     V93    10.047   .     S
Ti14     Ti39    10.013   .     S
Ti14     Ti15    9.981   .     S
Ti15     Er17    10.008   .     S
Ti15     Ti44    10.013   .     S
Er16     V18    10.005   .     S
Er16     Ti19    10.008   .     S
Er16     Er17    9.954   .     S
Er17     V18    10.005   .     S
V18     V98    10.047   .     S
Ti19     Ti24    10.013   .     S
Ti19     Ti20    9.981   .     S
Er21     V23    10.005   .     S
Er21     Ti29    10.008   .     S
Er21     Er22    9.954   .     S
Er22     V23    10.005   .     S
Er22     Ti25    10.008   .     S
V23     V263    10.047   .     S
Ti24     Er26    10.008   .     S
Ti24     Ti25    9.981   .     S
Er26     V28    10.005   .     S
Er26     Er27    9.954   .     S
Er27     V28    10.005   .     S
Er27     Ti30    10.008   .     S
V28     V268    10.047   .     S
Ti29     Ti59    10.013   .     S
Ti29     Ti30    9.981   .     S
Ti30     Ti50    10.013   .     S
Ti31     Er33    10.008   .     S
Ti31     Ti51    10.013   .     S
Ti31     Ti32    9.981   .     S
Ti32     Er36    10.008   .     S
Er33     V35    10.005   .     S
Er33     Er34    9.954   .     S
Er34     V35    10.005   .     S
Er34     Ti40    10.008   .     S
V35     V285    10.047   1_556     S
Er36     V38    10.005   .     S
Er36     Er37    9.954   .     S
Er37     V38    10.005   .     S
Er37     Ti39    10.008   .     S
V38     V288    10.047   1_556     S
Ti39     Ti40    9.981   .     S
Ti40     Ti45    10.013   .     S
Er41     V43    10.005   .     S
Er41     Ti49    10.008   .     S
Er41     Er42    9.954   .     S
Er42     V43    10.005   .     S
Er42     Ti45    10.008   .     S
V43     V143    10.047   .     S
Ti44     Er47    10.008   .     S
Ti44     Ti45    9.981   .     S
Er46     V48    10.005   .     S
Er46     Ti50    10.008   .     S
Er46     Er47    9.954   .     S
Er47     V48    10.005   .     S
V48     V148    10.047   .     S
Ti49     Ti60    10.013   .     S
Ti49     Ti50    9.981   .     S
Ti51     Er53    10.008   .     S
Ti51     Ti52    9.981   .     S
Ti52     Er56    10.008   .     S
Er53     V55    10.005   .     S
Er53     Er54    9.954   .     S
Er54     V55    10.005   .     S
Er54     Ti60    10.008   .     S
V55     V115    10.047   1_655     S
Er56     V58    10.005   .     S
Er56     Er57    9.954   .     S
Er57     V58    10.005   .     S
Er57     Ti59    10.008   .     S
V58     V118    10.047   1_655     S
Ti59     Ti60    9.981   .     S
Er61     V63    10.005   .     S
Er61     Ti69    10.008   .     S
Er61     Er62    9.954   .     S
Er62     V63    10.005   .     S
Er62     Ti64    10.008   .     S
V63     V403    10.047   .     S
Ti64     Ti109    10.013   .     S
Ti64     Ti65    9.981   .     S
Ti65     Er67    10.008   .     S
Ti65     Ti94    10.013   .     S
Er66     V68    10.005   .     S
Er66     Ti70    10.008   .     S
Er66     Er67    9.954   .     S
Er67     V68    10.005   .     S
V68     V408    10.047   .     S
Ti69     Ti119    10.013   .     S
Ti69     Ti70    9.981   .     S
Ti70     Ti84    10.013   .     S
Ti71     Er76    10.008   .     S
Ti71     Ti101    10.013   .     S
Ti71     Ti72    9.981   .     S
Ti72     Er73    10.008   .     S
Ti72     Ti111    10.013   .     S
Er73     V75    10.005   .     S
Er73     Er74    9.954   .     S
Er74     V75    10.005   .     S
Er74     Ti80    10.008   .     S
V75     V368    10.047   1_556     S
Er76     V78    10.005   .     S
Er76     Er77    9.954   .     S
Er77     V78    10.005   .     S
Er77     Ti79    10.008   .     S
V78     V365    10.047   1_556     S
Ti79     Ti99    10.013   .     S
Ti79     Ti80    9.981   .     S
Ti80     Ti89    10.013   .     S
Er81     V83    10.005   .     S
Er81     Ti89    10.008   .     S
Er81     Er82    9.954   .     S
Er82     V83    10.005   .     S
Er82     Ti85    10.008   .     S
V83     V193    10.047   .     S
Ti84     Er86    10.008   .     S
Ti84     Ti85    9.981   .     S
Ti85     Ti120    10.013   .     S
Er86     V88    10.005   .     S
Er86     Er87    9.954   .     S
Er87     V88    10.005   .     S
Er87     Ti90    10.008   .     S
V88     V198    10.047   .     S
Ti89     Ti90    9.981   .     S
Ti90     Ti100    10.013   .     S
Er91     V93    10.005   .     S
Er91     Ti99    10.008   .     S
Er91     Er92    9.954   .     S
Er92     V93    10.005   .     S
Er92     Ti95    10.008   .     S
Ti94     Er96    10.008   .     S
Ti94     Ti95    9.981   .     S
Ti95     Ti110    10.013   .     S
Er96     V98    10.005   .     S
Er96     Er97    9.954   .     S
Er97     V98    10.005   .     S
Er97     Ti100    10.008   .     S
Ti99     Ti100    9.981   .     S
Ti101     Er103    10.008   .     S
Ti101     Ti102    9.981   .     S
Ti102     Er106    10.008   .     S
Ti102     Ti112    10.013   .     S
Er103     V105    10.005   .     S
Er103     Er104    9.954   .     S
Er104     V105    10.005   .     S
Er104     Ti110    10.008   .     S
V105     V215    10.047   1_545     S
Er106     V108    10.005   .     S
Er106     Er107    9.954   .     S
Er107     V108    10.005   .     S
Er107     Ti109    10.008   .     S
V108     V218    10.047   1_545     S
Ti109     Ti110    9.981   .     S
Ti111     Er113    10.008   .     S
Ti111     Ti112    9.981   .     S
Ti112     Er116    10.008   .     S
Er113     V115    10.005   .     S
Er113     Er114    9.954   .     S
Er114     V115    10.005   .     S
Er114     Ti120    10.008   .     S
V115     V55    10.047   1_455     S
Er116     V118    10.005   .     S
Er116     Er117    9.954   .     S
Er117     V118    10.005   .     S
Er117     Ti119    10.008   .     S
V118     V58    10.047   1_455     S
Ti119     Ti120    9.981   .     S
Er121     V123    10.005   .     S
Er121     Ti129    10.008   .     S
Er121     Er122    9.954   .     S
Er122     V123    10.005   .     S
Er122     Ti125    10.008   .     S
V123     V223    10.047   .     S
Ti124     Er127    10.008   .     S
Ti124     Ti144    10.013   .     S
Ti124     Ti125    9.981   .     S
Ti125     Ti159    10.013   .     S
Er126     V128    10.005   .     S
Er126     Ti130    10.008   .     S
Er126     Er127    9.954   .     S
Er127     V128    10.005   .     S
V128     V228    10.047   .     S
Ti129     Ti170    10.013   .     S
Ti129     Ti130    9.981   .     S
Ti130     Ti134    10.013   .     S
Er131     V133    10.005   .     S
Er131     Ti139    10.008   .     S
Er131     Er132    9.954   .     S
Er132     V133    10.005   .     S
Er132     Ti135    10.008   .     S
V133     V343    10.047   .     S
Ti134     Er137    10.008   .     S
Ti134     Ti135    9.981   .     S
Ti135     Ti169    10.013   .     S
Er136     V138    10.005   .     S
Er136     Ti140    10.008   .     S
Er136     Er137    9.954   .     S
Er137     V138    10.005   .     S
V138     V348    10.047   .     S
Ti139     Ti180    10.013   .     S
Ti139     Ti140    9.981   .     S
Ti140     Ti150    10.013   .     S
Er141     V143    10.005   .     S
Er141     Ti149    10.008   .     S
Er141     Er142    9.954   .     S
Er142     V143    10.005   .     S
Er142     Ti145    10.008   .     S
Ti144     Er147    10.008   .     S
Ti144     Ti145    9.981   .     S
Ti145     Ti160    10.013   .     S
Er146     V148    10.005   .     S
Er146     Ti150    10.008   .     S
Er146     Er147    9.954   .     S
Er147     V148    10.005   .     S
Ti149     Ti179    10.013   .     S
Ti149     Ti150    9.981   .     S
Ti151     Er153    10.008   .     S
Ti151     Ti171    10.013   .     S
Ti151     Ti152    9.981   .     S
Ti152     Er156    10.008   .     S
Ti152     Ti162    10.013   .     S
Er153     V155    10.005   .     S
Er153     Er154    9.954   .     S
Er154     V155    10.005   .     S
Er154     Ti160    10.008   .     S
V155     V308    10.047   1_556     S
Er156     V158    10.005   .     S
Er156     Er157    9.954   .     S
Er157     V158    10.005   .     S
Er157     Ti159    10.008   .     S
V158     V305    10.047   1_556     S
Ti159     Ti160    9.981   .     S
Ti161     Er166    10.008   .     S
Ti161     Ti172    10.013   .     S
Ti161     Ti162    9.981   .     S
Ti162     Er163    10.008   .     S
Er163     V165    10.005   .     S
Er163     Er164    9.954   .     S
Er164     V165    10.005   .     S
Er164     Ti170    10.008   .     S
V165     V8    10.047   1_565     S
Er166     V168    10.005   .     S
Er166     Er167    9.954   .     S
Er167     V168    10.005   .     S
Er167     Ti169    10.008   .     S
V168     V5    10.047   1_565     S
Ti169     Ti170    9.981   .     S
Ti171     Er176    10.008   .     S
Ti171     Ti172    9.981   .     S
Ti172     Er173    10.008   .     S
Er173     V175    10.005   .     S
Er173     Er174    9.954   .     S
Er174     V175    10.005   .     S
Er174     Ti180    10.008   .     S
V175     V188    10.047   1_655     S
Er176     V178    10.005   .     S
Er176     Er177    9.954   .     S
Er177     V178    10.005   .     S
Er177     Ti179    10.008   .     S
V178     V185    10.047   1_655     S
Ti179     Ti180    9.981   .     S
Ti181     Er186    10.008   .     S
Ti181     Ti212    10.013   .     S
Ti181     Ti182    9.981   .     S
Ti182     Er183    10.008   .     S
Ti182     Ti232    10.013   .     S
Er183     V185    10.005   .     S
Er183     Er184    9.954   .     S
Er184     V185    10.005   .     S
Er184     Ti190    10.008   .     S
V185     V178    10.047   1_455     S
Er186     V188    10.005   .     S
Er186     Er187    9.954   .     S
Er187     V188    10.005   .     S
Er187     Ti189    10.008   .     S
V188     V175    10.047   1_455     S
Ti189     Ti205    10.013   .     S
Ti189     Ti190    9.981   .     S
Ti190     Ti200    10.013   .     S
Er191     V193    10.005   .     S
Er191     Ti194    10.008   .     S
Er191     Er192    9.954   .     S
Er192     V193    10.005   .     S
Er192     Ti200    10.008   .     S
Ti194     Ti239    10.013   .     S
Ti194     Ti195    9.981   .     S
Ti195     Er197    10.008   .     S
Ti195     Ti230    10.013   .     S
Er196     V198    10.005   .     S
Er196     Ti199    10.008   .     S
Er196     Er197    9.954   .     S
Er197     V198    10.005   .     S
Ti199     Ti204    10.013   .     S
Ti199     Ti200    9.981   .     S
Er201     V203    10.005   .     S
Er201     Ti209    10.008   .     S
Er201     Er202    9.954   .     S
Er202     V203    10.005   .     S
Er202     Ti205    10.008   .     S
V203     V453    10.047   .     S
Ti204     Er206    10.008   .     S
Ti204     Ti205    9.981   .     S
Er206     V208    10.005   .     S
Er206     Er207    9.954   .     S
Er207     V208    10.005   .     S
Er207     Ti210    10.008   .     S
V208     V458    10.047   .     S
Ti209     Ti219    10.013   .     S
Ti209     Ti210    9.981   .     S
Ti210     Ti224    10.013   .     S
Ti211     Er213    10.008   .     S
Ti211     Ti231    10.013   .     S
Ti211     Ti212    9.981   .     S
Ti212     Er216    10.008   .     S
Er213     V215    10.005   .     S
Er213     Er214    9.954   .     S
Er214     V215    10.005   .     S
Er214     Ti220    10.008   .     S
V215     V105    10.047   1_565     S
Er216     V218    10.005   .     S
Er216     Er217    9.954   .     S
Er217     V218    10.005   .     S
Er217     Ti219    10.008   .     S
V218     V108    10.047   1_565     S
Ti219     Ti220    9.981   .     S
Ti220     Ti225    10.013   .     S
Er221     V223    10.005   .     S
Er221     Ti225    10.008   .     S
Er221     Er222    9.954   .     S
Er222     V223    10.005   .     S
Er222     Ti229    10.008   .     S
Ti224     Er227    10.008   .     S
Ti224     Ti225    9.981   .     S
Er226     V228    10.005   .     S
Er226     Ti230    10.008   .     S
Er226     Er227    9.954   .     S
Er227     V228    10.005   .     S
Ti229     Ti240    10.013   .     S
Ti229     Ti230    9.981   .     S
Ti231     Er233    10.008   .     S
Ti231     Ti232    9.981   .     S
Ti232     Er236    10.008   .     S
Er233     V235    10.005   .     S
Er233     Er234    9.954   .     S
Er234     V235    10.005   .     S
Er234     Ti240    10.008   .     S
V235     V465    10.047   1_556     S
Er236     V238    10.005   .     S
Er236     Er237    9.954   .     S
Er237     V238    10.005   .     S
Er237     Ti239    10.008   .     S
V238     V468    10.047   1_556     S
Ti239     Ti240    9.981   .     S
Er241     V243    10.005   .     S
Er241     Ti249    10.008   .     S
Er241     Er242    9.954   .     S
Er242     V243    10.005   .     S
Er242     Ti244    10.008   .     S
V243     V393    10.047   .     S
Ti244     Ti289    10.013   .     S
Ti244     Ti245    9.981   .     S
Ti245     Er247    10.008   .     S
Ti245     Ti274    10.013   .     S
Er246     V248    10.005   .     S
Er246     Ti250    10.008   .     S
Er246     Er247    9.954   .     S
Er247     V248    10.005   .     S
V248     V398    10.047   .     S
Ti249     Ti299    10.013   .     S
Ti249     Ti250    9.981   .     S
Ti250     Ti264    10.013   .     S
Ti251     Er256    10.008   .     S
Ti251     Ti281    10.013   .     S
Ti251     Ti252    9.981   .     S
Ti252     Er253    10.008   .     S
Ti252     Ti291    10.013   .     S
Er253     V255    10.005   .     S
Er253     Er254    9.954   .     S
Er254     V255    10.005   .     S
Er254     Ti260    10.008   .     S
V255     V388    10.047   1_655     S
Er256     V258    10.005   .     S
Er256     Er257    9.954   .     S
Er257     V258    10.005   .     S
Er257     Ti259    10.008   .     S
V258     V385    10.047   1_655     S
Ti259     Ti279    10.013   .     S
Ti259     Ti260    9.981   .     S
Ti260     Ti269    10.013   .     S
Er261     V263    10.005   .     S
Er261     Ti269    10.008   .     S
Er261     Er262    9.954   .     S
Er262     V263    10.005   .     S
Er262     Ti265    10.008   .     S
Ti264     Er266    10.008   .     S
Ti264     Ti265    9.981   .     S
Ti265     Ti300    10.013   .     S
Er266     V268    10.005   .     S
Er266     Er267    9.954   .     S
Er267     V268    10.005   .     S
Er267     Ti270    10.008   .     S
Ti269     Ti270    9.981   .     S
Ti270     Ti280    10.013   .     S
Er271     V273    10.005   .     S
Er271     Ti279    10.008   .     S
Er271     Er272    9.954   .     S
Er272     V273    10.005   .     S
Er272     Ti275    10.008   .     S
V273     V323    10.047   .     S
Ti274     Er276    10.008   .     S
Ti274     Ti275    9.981   .     S
Ti275     Ti290    10.013   .     S
Er276     V278    10.005   .     S
Er276     Er277    9.954   .     S
Er277     V278    10.005   .     S
Er277     Ti280    10.008   .     S
V278     V328    10.047   .     S
Ti279     Ti280    9.981   .     S
Ti281     Er283    10.008   .     S
Ti281     Ti282    9.981   .     S
Ti282     Er286    10.008   .     S
Ti282     Ti292    10.013   .     S
Er283     V285    10.005   .     S
Er283     Er284    9.954   .     S
Er284     V285    10.005   .     S
Er284     Ti290    10.008   .     S
V285     V35    10.047   1_554     S
Er286     V288    10.005   .     S
Er286     Er287    9.954   .     S
Er287     V288    10.005   .     S
Er287     Ti289    10.008   .     S
V288     V38    10.047   1_554     S
Ti289     Ti290    9.981   .     S
Ti291     Er293    10.008   .     S
Ti291     Ti292    9.981   .     S
Ti292     Er296    10.008   .     S
Er293     V295    10.005   .     S
Er293     Er294    9.954   .     S
Er294     V295    10.005   .     S
Er294     Ti300    10.008   .     S
V295     V335    10.047   1_545     S
Er296     V298    10.005   .     S
Er296     Er297    9.954   .     S
Er297     V298    10.005   .     S
Er297     Ti299    10.008   .     S
V298     V338    10.047   1_545     S
Ti299     Ti300    9.981   .     S
Ti301     Er306    10.008   .     S
Ti301     Ti352    10.013   .     S
Ti301     Ti302    9.981   .     S
Ti302     Er303    10.008   .     S
Ti302     Ti332    10.013   .     S
Er303     V305    10.005   .     S
Er303     Er304    9.954   .     S
Er304     V305    10.005   .     S
Er304     Ti310    10.008   .     S
V305     V158    10.047   1_554     S
Er306     V308    10.005   .     S
Er306     Er307    9.954   .     S
Er307     V308    10.005   .     S
Er307     Ti309    10.008   .     S
V308     V155    10.047   1_554     S
Ti309     Ti325    10.013   .     S
Ti309     Ti310    9.981   .     S
Ti310     Ti315    10.013   .     S
Er311     V313    10.005   .     S
Er311     Ti319    10.008   .     S
Er311     Er312    9.954   .     S
Er312     V313    10.005   .     S
Er312     Ti315    10.008   .     S
V313     V443    10.047   .     S
Ti314     Er316    10.008   .     S
Ti314     Ti324    10.013   .     S
Ti314     Ti315    9.981   .     S
Er316     V318    10.005   .     S
Er316     Er317    9.954   .     S
Er317     V318    10.005   .     S
Er317     Ti320    10.008   .     S
V318     V448    10.047   .     S
Ti319     Ti339    10.013   .     S
Ti319     Ti320    9.981   .     S
Ti320     Ti344    10.013   .     S
Er321     V323    10.005   .     S
Er321     Ti329    10.008   .     S
Er321     Er322    9.954   .     S
Er322     V323    10.005   .     S
Er322     Ti325    10.008   .     S
Ti324     Er326    10.008   .     S
Ti324     Ti325    9.981   .     S
Er326     V328    10.005   .     S
Er326     Er327    9.954   .     S
Er327     V328    10.005   .     S
Er327     Ti330    10.008   .     S
Ti329     Ti359    10.013   .     S
Ti329     Ti330    9.981   .     S
Ti330     Ti350    10.013   .     S
Ti331     Er333    10.008   .     S
Ti331     Ti351    10.013   .     S
Ti331     Ti332    9.981   .     S
Ti332     Er336    10.008   .     S
Er333     V335    10.005   .     S
Er333     Er334    9.954   .     S
Er334     V335    10.005   .     S
Er334     Ti340    10.008   .     S
V335     V295    10.047   1_565     S
Er336     V338    10.005   .     S
Er336     Er337    9.954   .     S
Er337     V338    10.005   .     S
Er337     Ti339    10.008   .     S
V338     V298    10.047   1_565     S
Ti339     Ti340    9.981   .     S
Ti340     Ti345    10.013   .     S
Er341     V343    10.005   .     S
Er341     Ti349    10.008   .     S
Er341     Er342    9.954   .     S
Er342     V343    10.005   .     S
Er342     Ti345    10.008   .     S
Ti344     Er347    10.008   .     S
Ti344     Ti345    9.981   .     S
Er346     V348    10.005   .     S
Er346     Ti350    10.008   .     S
Er346     Er347    9.954   .     S
Er347     V348    10.005   .     S
Ti349     Ti360    10.013   .     S
Ti349     Ti350    9.981   .     S
Ti351     Er356    10.008   .     S
Ti351     Ti352    9.981   .     S
Ti352     Er353    10.008   .     S
Er353     V355    10.005   .     S
Er353     Er354    9.954   .     S
Er354     V355    10.005   .     S
Er354     Ti359    10.008   .     S
V355     V475    10.047   1_655     S
Er356     V358    10.005   .     S
Er356     Er357    9.954   .     S
Er357     V358    10.005   .     S
Er357     Ti360    10.008   .     S
V358     V478    10.047   1_655     S
Ti359     Ti360    9.981   .     S
Ti361     Er363    10.008   .     S
Ti361     Ti372    10.013   .     S
Ti361     Ti362    9.981   .     S
Ti362     Er366    10.008   .     S
Ti362     Ti382    10.013   .     S
Er363     V365    10.005   .     S
Er363     Er364    9.954   .     S
Er364     V365    10.005   .     S
Er364     Ti370    10.008   .     S
V365     V78    10.047   1_554     S
Er366     V368    10.005   .     S
Er366     Er367    9.954   .     S
Er367     V368    10.005   .     S
Er367     Ti369    10.008   .     S
V368     V75    10.047   1_554     S
Ti369     Ti414    10.013   .     S
Ti369     Ti370    9.981   .     S
Ti370     Ti394    10.013   .     S
Ti371     Er373    10.008   .     S
Ti371     Ti381    10.013   .     S
Ti371     Ti372    9.981   .     S
Ti372     Er376    10.008   .     S
Er373     V375    10.005   .     S
Er373     Er374    9.954   .     S
Er374     V375    10.005   .     S
Er374     Ti380    10.008   .     S
V375     V438    10.047   1_545     S
Er376     V378    10.005   .     S
Er376     Er377    9.954   .     S
Er377     V378    10.005   .     S
Er377     Ti379    10.008   .     S
V378     V435    10.047   1_545     S
Ti379     Ti399    10.013   .     S
Ti379     Ti380    9.981   .     S
Ti380     Ti404    10.013   .     S
Ti381     Er386    10.008   .     S
Ti381     Ti382    9.981   .     S
Ti382     Er383    10.008   .     S
Er383     V385    10.005   .     S
Er383     Er384    9.954   .     S
Er384     V385    10.005   .     S
Er384     Ti390    10.008   .     S
V385     V258    10.047   1_455     S
Er386     V388    10.005   .     S
Er386     Er387    9.954   .     S
Er387     V388    10.005   .     S
Er387     Ti389    10.008   .     S
V388     V255    10.047   1_455     S
Ti389     Ti409    10.013   .     S
Ti389     Ti390    9.981   .     S
Ti390     Ti419    10.013   .     S
Er391     V393    10.005   .     S
Er391     Ti399    10.008   .     S
Er391     Er392    9.954   .     S
Er392     V393    10.005   .     S
Er392     Ti394    10.008   .     S
Ti394     Ti395    9.981   .     S
Ti395     Er397    10.008   .     S
Ti395     Ti415    10.013   .     S
Er396     V398    10.005   .     S
Er396     Ti400    10.008   .     S
Er396     Er397    9.954   .     S
Er397     V398    10.005   .     S
Ti399     Ti400    9.981   .     S
Ti400     Ti405    10.013   .     S
Er401     V403    10.005   .     S
Er401     Ti409    10.008   .     S
Er401     Er402    9.954   .     S
Er402     V403    10.005   .     S
Er402     Ti404    10.008   .     S
Ti404     Ti405    9.981   .     S
Ti405     Er407    10.008   .     S
Er406     V408    10.005   .     S
Er406     Ti410    10.008   .     S
Er406     Er407    9.954   .     S
Er407     V408    10.005   .     S
Ti409     Ti410    9.981   .     S
Ti410     Ti420    10.013   .     S
Er411     V413    10.005   .     S
Er411     Ti419    10.008   .     S
Er411     Er412    9.954   .     S
Er412     V413    10.005   .     S
Er412     Ti414    10.008   .     S
V413     V423    10.047   .     S
Ti414     Ti415    9.981   .     S
Ti415     Er417    10.008   .     S
Er416     V418    10.005   .     S
Er416     Ti420    10.008   .     S
Er416     Er417    9.954   .     S
Er417     V418    10.005   .     S
V418     V428    10.047   .     S
Ti419     Ti420    9.981   .     S
Er421     V423    10.005   .     S
Er421     Ti429    10.008   .     S
Er421     Er422    9.954   .     S
Er422     V423    10.005   .     S
Er422     Ti424    10.008   .     S
Ti424     Ti469    10.013   .     S
Ti424     Ti425    9.981   .     S
Ti425     Er427    10.008   .     S
Ti425     Ti444    10.013   .     S
Er426     V428    10.005   .     S
Er426     Ti430    10.008   .     S
Er426     Er427    9.954   .     S
Er427     V428    10.005   .     S
Ti429     Ti479    10.013   .     S
Ti429     Ti430    9.981   .     S
Ti430     Ti454    10.013   .     S
Ti431     Er433    10.008   .     S
Ti431     Ti461    10.013   .     S
Ti431     Ti432    9.981   .     S
Ti432     Er436    10.008   .     S
Ti432     Ti471    10.013   .     S
Er433     V435    10.005   .     S
Er433     Er434    9.954   .     S
Er434     V435    10.005   .     S
Er434     Ti440    10.008   .     S
V435     V378    10.047   1_565     S
Er436     V438    10.005   .     S
Er436     Er437    9.954   .     S
Er437     V438    10.005   .     S
Er437     Ti439    10.008   .     S
V438     V375    10.047   1_565     S
Ti439     Ti459    10.013   .     S
Ti439     Ti440    9.981   .     S
Ti440     Ti449    10.013   .     S
Er441     V443    10.005   .     S
Er441     Ti449    10.008   .     S
Er441     Er442    9.954   .     S
Er442     V443    10.005   .     S
Er442     Ti445    10.008   .     S
Ti444     Er446    10.008   .     S
Ti444     Ti445    9.981   .     S
Ti445     Ti470    10.013   .     S
Er446     V448    10.005   .     S
Er446     Er447    9.954   .     S
Er447     V448    10.005   .     S
Er447     Ti450    10.008   .     S
Ti449     Ti450    9.981   .     S
Ti450     Ti460    10.013   .     S
Er451     V453    10.005   .     S
Er451     Ti459    10.008   .     S
Er451     Er452    9.954   .     S
Er452     V453    10.005   .     S
Er452     Ti455    10.008   .     S
Ti454     Er456    10.008   .     S
Ti454     Ti455    9.981   .     S
Ti455     Ti480    10.013   .     S
Er456     V458    10.005   .     S
Er456     Er457    9.954   .     S
Er457     V458    10.005   .     S
Er457     Ti460    10.008   .     S
Ti459     Ti460    9.981   .     S
Ti461     Er463    10.008   .     S
Ti461     Ti462    9.981   .     S
Ti462     Er466    10.008   .     S
Ti462     Ti472    10.013   .     S
Er463     V465    10.005   .     S
Er463     Er464    9.954   .     S
Er464     V465    10.005   .     S
Er464     Ti470    10.008   .     S
V465     V235    10.047   1_554     S
Er466     V468    10.005   .     S
Er466     Er467    9.954   .     S
Er467     V468    10.005   .     S
Er467     Ti469    10.008   .     S
V468     V238    10.047   1_554     S
Ti469     Ti470    9.981   .     S
Ti471     Er476    10.008   .     S
Ti471     Ti472    9.981   .     S
Ti472     Er473    10.008   .     S
Er473     V475    10.005   .     S
Er473     Er474    9.954   .     S
Er474     V475    10.005   .     S
Er474     Ti479    10.008   .     S
V475     V355    10.047   1_455     S
Er476     V478    10.005   .     S
Er476     Er477    9.954   .     S
Er477     V478    10.005   .     S
Er477     Ti480    10.008   .     S
V478     V358    10.047   1_455     S
Ti479     Ti480    9.981   .     S
