data_nul0
_audit_creation_date              2020-02-04
_audit_creation_method            'Pymatgen'
_symmetry_space_group_name_H-M    'P1'
_symmetry_Int_Tables_number       1
loop_
_symmetry_equiv_pos_as_xyz
  x,y,z
_cell_length_a                    162.988
_cell_length_b                    162.988
_cell_length_c                    162.988
_cell_angle_alpha                 90.0
_cell_angle_beta                 90.0
_cell_angle_gamma                 90.0
loop_
_atom_site_label
_atom_site_type_symbol
_atom_site_fract_x
_atom_site_fract_y
_atom_site_fract_z
Ce1     Ce     0.9078   0.1027   0.6027
Ce2     Ce     0.6027   0.9078   0.1027
Ce3     Ce     0.9078   0.6027   0.1027
Ce4     Ce     0.6027   0.1027   0.9078
Ce5     Ce     0.1027   0.6027   0.9078
Ce6     Ce     0.1027   0.9078   0.6027
Ce7     Ce     0.6473   0.9078   0.1473
Ce8     Ce     0.1473   0.9078   0.6473
Ce9     Ce     0.3527   0.6578   0.8973
Ce10     Ce     0.1473   0.6027   0.3422
Ce11     Ce     0.3422   0.6027   0.1473
Ce12     Ce     0.3422   0.6473   0.1027
Ce13     Ce     0.1027   0.3422   0.6473
Ce14     Ce     0.1027   0.4078   0.1027
Ce15     Ce     0.4078   0.1027   0.1027
Ce16     Ce     0.1027   0.1027   0.4078
Ce17     Ce     0.6027   0.3422   0.1473
Ce18     Ce     0.4078   0.1473   0.1473
Ce19     Ce     0.3422   0.1473   0.6027
Ce20     Ce     0.6027   0.6027   0.4078
Ce21     Ce     0.6027   0.4078   0.6027
Ce22     Ce     0.6027   0.1473   0.3422
Ce23     Ce     0.1473   0.3422   0.6027
Ce24     Ce     0.4078   0.6027   0.6027
Ce25     Ce     0.8527   0.0922   0.3527
Ce26     Ce     0.3527   0.8527   0.0922
Ce27     Ce     0.6473   0.1027   0.3422
Ce28     Ce     0.8973   0.3527   0.6578
Ce29     Ce     0.0922   0.3973   0.8973
Ce30     Ce     0.6473   0.3422   0.1027
Ce31     Ce     0.0922   0.8973   0.3973
Ce32     Ce     0.3973   0.0922   0.8973
Ce33     Ce     0.3973   0.8527   0.6578
Ce34     Ce     0.3527   0.0922   0.8527
Ce35     Ce     0.3973   0.8973   0.0922
Ce36     Ce     0.8973   0.0922   0.3973
Ce37     Ce     0.8973   0.3973   0.0922
Ce38     Ce     0.1027   0.6473   0.3422
Ce39     Ce     0.5922   0.8973   0.8973
Ce40     Ce     0.8973   0.5922   0.8973
Ce41     Ce     0.3422   0.1027   0.6473
Ce42     Ce     0.8527   0.6578   0.3973
Ce43     Ce     0.8973   0.8973   0.5922
Ce44     Ce     0.8527   0.3527   0.0922
Ce45     Ce     0.4078   0.6473   0.6473
Ce46     Ce     0.6578   0.8973   0.3527
Ce47     Ce     0.0922   0.8527   0.3527
Ce48     Ce     0.0922   0.3527   0.8527
Ce49     Ce     0.1578   0.8527   0.8973
Ce50     Ce     0.8973   0.1578   0.8527
Ce51     Ce     0.8527   0.8973   0.1578
Ce52     Ce     0.1027   0.8422   0.1473
Ce53     Ce     0.8422   0.1027   0.1473
Ce54     Ce     0.1473   0.8422   0.1027
Ce55     Ce     0.1473   0.1473   0.4078
Ce56     Ce     0.1027   0.1473   0.8422
Ce57     Ce     0.1473   0.4078   0.1473
Ce58     Ce     0.3527   0.3973   0.1578
Ce59     Ce     0.8422   0.1473   0.1027
Ce60     Ce     0.8973   0.6578   0.3527
Ce61     Ce     0.8527   0.8527   0.5922
Ce62     Ce     0.9078   0.1473   0.6473
Ce63     Ce     0.6578   0.3973   0.8527
Ce64     Ce     0.6578   0.3527   0.8973
Ce65     Ce     0.5922   0.8527   0.8527
Ce66     Ce     0.3527   0.8973   0.6578
Ce67     Ce     0.1473   0.1027   0.8422
Ce68     Ce     0.8527   0.5922   0.8527
Ce69     Ce     0.1578   0.3527   0.3973
Ce70     Ce     0.3527   0.1578   0.3973
Ce71     Ce     0.3527   0.5922   0.3527
Ce72     Ce     0.8527   0.3973   0.6578
Ce73     Ce     0.3973   0.3973   0.5922
Ce74     Ce     0.3973   0.5922   0.3973
Ce75     Ce     0.5922   0.3527   0.3527
Ce76     Ce     0.3527   0.3527   0.5922
Ce77     Ce     0.3973   0.6578   0.8527
Ce78     Ce     0.6578   0.8527   0.3973
Ce79     Ce     0.1473   0.6473   0.9078
Ce80     Ce     0.5922   0.3973   0.3973
Ce81     Ce     0.6473   0.1473   0.9078
Ce82     Ce     0.9078   0.6473   0.1473
Ce83     Ce     0.6473   0.6027   0.8422
Ce84     Ce     0.6027   0.6473   0.8422
Ce85     Ce     0.8422   0.6473   0.6027
Ce86     Ce     0.6027   0.8422   0.6473
Ce87     Ce     0.8422   0.6027   0.6473
Ce88     Ce     0.1578   0.8973   0.8527
Ce89     Ce     0.6473   0.8422   0.6027
Ce90     Ce     0.8527   0.1578   0.8973
Ce91     Ce     0.8973   0.8527   0.1578
Ce92     Ce     0.1578   0.3973   0.3527
Ce93     Ce     0.3973   0.1578   0.3527
Ce94     Ce     0.3973   0.3527   0.1578
Ce95     Ce     0.6473   0.4078   0.6473
Ce96     Ce     0.6473   0.6473   0.4078
B97     B     0.4674   0.4674   0.6641
B98     B     0.4674   0.6641   0.4674
B99     B     0.6641   0.2826   0.2826
B100     B     0.6641   0.4674   0.4674
B101     B     0.0326   0.3359   0.0326
B102     B     0.3359   0.0326   0.0326
B103     B     0.0326   0.0326   0.3359
B104     B     0.2826   0.6641   0.2826
B105     B     0.4674   0.2826   0.0859
B106     B     0.2826   0.0859   0.4674
B107     B     0.2826   0.2826   0.6641
B108     B     0.2174   0.9141   0.0326
B109     B     0.6641   0.9674   0.9674
B110     B     0.9674   0.6641   0.9674
B111     B     0.3359   0.2174   0.2174
B112     B     0.9674   0.9674   0.6641
B113     B     0.2174   0.3359   0.2174
B114     B     0.2826   0.4674   0.0859
B115     B     0.2174   0.7174   0.8359
B116     B     0.2826   0.5859   0.9674
B117     B     0.2174   0.8359   0.7174
B118     B     0.2174   0.4141   0.5326
B119     B     0.2826   0.9674   0.5859
B120     B     0.7174   0.8359   0.2174
B121     B     0.2174   0.2174   0.3359
B122     B     0.0326   0.2174   0.9141
B123     B     0.8359   0.7174   0.2174
B124     B     0.0859   0.4674   0.2826
B125     B     0.5326   0.8359   0.0326
B126     B     0.8359   0.5326   0.0326
B127     B     0.5326   0.0326   0.8359
B128     B     0.7174   0.0326   0.4141
B129     B     0.8359   0.0326   0.5326
B130     B     0.4141   0.7174   0.0326
B131     B     0.0326   0.8359   0.5326
B132     B     0.0326   0.5326   0.8359
B133     B     0.0326   0.4141   0.7174
B134     B     0.7174   0.2174   0.8359
B135     B     0.5326   0.2174   0.4141
B136     B     0.9674   0.5859   0.2826
B137     B     0.4674   0.7826   0.5859
B138     B     0.8359   0.2174   0.7174
B139     B     0.4141   0.5326   0.2174
B140     B     0.7826   0.5859   0.4674
B141     B     0.5859   0.4674   0.7826
B142     B     0.5859   0.2826   0.9674
B143     B     0.7826   0.4674   0.5859
B144     B     0.4674   0.5859   0.7826
B145     B     0.5859   0.9674   0.2826
B146     B     0.5859   0.7826   0.4674
B147     B     0.9674   0.2826   0.5859
B148     B     0.2174   0.5326   0.4141
B149     B     0.5326   0.5326   0.3359
B150     B     0.7174   0.3359   0.7174
B151     B     0.7174   0.7174   0.3359
B152     B     0.5326   0.3359   0.5326
B153     B     0.9141   0.0326   0.2174
B154     B     0.3359   0.7174   0.7174
B155     B     0.3359   0.5326   0.5326
B156     B     0.2174   0.0326   0.9141
B157     B     0.0859   0.9674   0.7826
B158     B     0.7174   0.4141   0.0326
B159     B     0.0326   0.9141   0.2174
B160     B     0.2826   0.1641   0.7826
B161     B     0.9141   0.2174   0.0326
B162     B     0.1641   0.7826   0.2826
B163     B     0.7826   0.0859   0.9674
B164     B     0.0326   0.7174   0.4141
B165     B     0.9674   0.7826   0.0859
B166     B     0.4141   0.0326   0.7174
B167     B     0.9674   0.0859   0.7826
B168     B     0.7826   0.9674   0.0859
B169     B     0.4674   0.0859   0.2826
B170     B     0.5326   0.4141   0.2174
B171     B     0.4141   0.2174   0.5326
B172     B     0.0859   0.2826   0.4674
B173     B     0.9141   0.5326   0.7174
B174     B     0.9141   0.7174   0.5326
B175     B     0.2826   0.7826   0.1641
B176     B     0.0859   0.7826   0.9674
B177     B     0.5326   0.7174   0.9141
B178     B     0.7174   0.9141   0.5326
B179     B     0.5326   0.9141   0.7174
B180     B     0.7826   0.1641   0.2826
B181     B     0.7174   0.5326   0.9141
B182     B     0.1641   0.2826   0.7826
B183     B     0.1641   0.4674   0.9674
B184     B     0.1641   0.9674   0.4674
B185     B     0.4674   0.1641   0.9674
B186     B     0.4674   0.9674   0.1641
B187     B     0.9674   0.1641   0.4674
B188     B     0.9674   0.4674   0.1641
B189     B     0.7826   0.2826   0.1641
B190     B     0.7826   0.7826   0.6641
B191     B     0.6641   0.7826   0.7826
C192     C     0.8316   0.875   0.8316
C193     C     0.8316   0.8316   0.875
C194     C     0.875   0.8316   0.8316
C195     C     0.9184   0.875   0.9184
C196     C     0.9184   0.8316   0.875
C197     C     0.875   0.8316   0.9184
C198     C     0.9184   0.9184   0.875
C199     C     0.875   0.9184   0.8316
C200     C     0.9184   0.875   0.8316
C201     C     0.875   0.9184   0.9184
C202     C     0.8316   0.9184   0.875
C203     C     0.8316   0.875   0.9184
C204     C     0.1684   0.125   0.1684
C205     C     0.125   0.1684   0.1684
C206     C     0.1684   0.1684   0.125
C207     C     0.125   0.0816   0.1684
C208     C     0.0816   0.0816   0.125
C209     C     0.0816   0.125   0.1684
C210     C     0.125   0.0816   0.0816
C211     C     0.1684   0.125   0.0816
C212     C     0.1684   0.0816   0.125
C213     C     0.125   0.1684   0.0816
C214     C     0.0816   0.125   0.0816
C215     C     0.0816   0.1684   0.125
C216     C     0.4184   0.375   0.9184
C217     C     0.375   0.3316   0.9184
C218     C     0.4184   0.3316   0.875
C219     C     0.375   0.4184   0.9184
C220     C     0.3316   0.375   0.9184
C221     C     0.3316   0.4184   0.875
C222     C     0.4184   0.4184   0.875
C223     C     0.4184   0.375   0.8316
C224     C     0.375   0.4184   0.8316
C225     C     0.375   0.3316   0.8316
C226     C     0.3316   0.375   0.8316
C227     C     0.3316   0.3316   0.875
C228     C     0.375   0.8316   0.4184
C229     C     0.4184   0.8316   0.375
C230     C     0.4184   0.875   0.4184
C231     C     0.375   0.9184   0.3316
C232     C     0.4184   0.9184   0.375
C233     C     0.4184   0.875   0.3316
C234     C     0.375   0.9184   0.4184
C235     C     0.3316   0.9184   0.375
C236     C     0.3316   0.875   0.4184
C237     C     0.3316   0.875   0.3316
C238     C     0.375   0.8316   0.3316
C239     C     0.3316   0.8316   0.375
C240     C     0.9184   0.4184   0.375
C241     C     0.9184   0.375   0.3316
C242     C     0.875   0.4184   0.3316
C243     C     0.875   0.3316   0.3316
C244     C     0.8316   0.3316   0.375
C245     C     0.8316   0.375   0.3316
C246     C     0.9184   0.375   0.4184
C247     C     0.9184   0.3316   0.375
C248     C     0.875   0.3316   0.4184
C249     C     0.8316   0.4184   0.375
C250     C     0.8316   0.375   0.4184
C251     C     0.875   0.4184   0.4184
C252     C     0.5816   0.125   0.6684
C253     C     0.625   0.0816   0.6684
C254     C     0.5816   0.0816   0.625
C255     C     0.6684   0.125   0.5816
C256     C     0.6684   0.0816   0.625
C257     C     0.625   0.0816   0.5816
C258     C     0.625   0.1684   0.5816
C259     C     0.5816   0.125   0.5816
C260     C     0.5816   0.1684   0.625
C261     C     0.625   0.1684   0.6684
C262     C     0.6684   0.125   0.6684
C263     C     0.6684   0.1684   0.625
C264     C     0.6684   0.6684   0.125
C265     C     0.625   0.6684   0.1684
C266     C     0.6684   0.625   0.1684
C267     C     0.5816   0.5816   0.125
C268     C     0.5816   0.625   0.1684
C269     C     0.625   0.5816   0.1684
C270     C     0.5816   0.6684   0.125
C271     C     0.5816   0.625   0.0816
C272     C     0.625   0.6684   0.0816
C273     C     0.6684   0.625   0.0816
C274     C     0.6684   0.5816   0.125
C275     C     0.625   0.5816   0.0816
C276     C     0.1684   0.6684   0.625
C277     C     0.125   0.6684   0.6684
C278     C     0.1684   0.625   0.6684
C279     C     0.1684   0.625   0.5816
C280     C     0.1684   0.5816   0.625
C281     C     0.125   0.5816   0.5816
C282     C     0.0816   0.6684   0.625
C283     C     0.125   0.6684   0.5816
C284     C     0.0816   0.625   0.5816
C285     C     0.125   0.5816   0.6684
C286     C     0.0816   0.625   0.6684
C287     C     0.0816   0.5816   0.625
Er288     Er     0.5895   0.7038   0.0462
Er289     Er     0.5462   0.7038   0.0895
Er290     Er     0.5462   0.6605   0.0462
Er291     Er     0.7038   0.5895   0.0462
Er292     Er     0.6605   0.5462   0.0462
Er293     Er     0.7038   0.5462   0.0895
Er294     Er     0.0462   0.5462   0.6605
Er295     Er     0.0462   0.5895   0.7038
Er296     Er     0.0895   0.5462   0.7038
Er297     Er     0.0462   0.7038   0.5895
Er298     Er     0.0462   0.6605   0.5462
Er299     Er     0.0895   0.7038   0.5462
Er300     Er     0.5895   0.0462   0.7038
Er301     Er     0.5462   0.0462   0.6605
Er302     Er     0.5462   0.0895   0.7038
Er303     Er     0.7038   0.0895   0.5462
Er304     Er     0.7038   0.0462   0.5895
Er305     Er     0.6605   0.0462   0.5462
Er306     Er     0.5462   0.2038   0.5895
Er307     Er     0.5895   0.2038   0.5462
Er308     Er     0.5462   0.1605   0.5462
Er309     Er     0.7038   0.6605   0.2038
Er310     Er     0.6605   0.7038   0.2038
Er311     Er     0.7038   0.7038   0.1605
Er312     Er     0.2038   0.5895   0.5462
Er313     Er     0.1605   0.5462   0.5462
Er314     Er     0.2038   0.5462   0.5895
Er315     Er     0.8395   0.9538   0.9538
Er316     Er     0.7962   0.9538   0.9105
Er317     Er     0.7962   0.9105   0.9538
Er318     Er     0.2038   0.6605   0.7038
Er319     Er     0.2038   0.7038   0.6605
Er320     Er     0.1605   0.7038   0.7038
Er321     Er     0.5895   0.5462   0.2038
Er322     Er     0.5462   0.5895   0.2038
Er323     Er     0.5462   0.5462   0.1605
Er324     Er     0.9538   0.8395   0.9538
Er325     Er     0.9538   0.7962   0.9105
Er326     Er     0.9105   0.7962   0.9538
Er327     Er     0.9538   0.9538   0.8395
Er328     Er     0.9538   0.9105   0.7962
Er329     Er     0.9105   0.9538   0.7962
Er330     Er     0.7038   0.2038   0.6605
Er331     Er     0.6605   0.2038   0.7038
Er332     Er     0.7038   0.1605   0.7038
Er333     Er     0.4105   0.2962   0.9538
Er334     Er     0.4538   0.3395   0.9538
Er335     Er     0.4538   0.2962   0.9105
Er336     Er     0.0462   0.0895   0.2038
Er337     Er     0.0895   0.0462   0.2038
Er338     Er     0.0462   0.0462   0.1605
Er339     Er     0.0462   0.2038   0.0895
Er340     Er     0.0895   0.2038   0.0462
Er341     Er     0.0462   0.1605   0.0462
Er342     Er     0.3395   0.9538   0.4538
Er343     Er     0.2962   0.9538   0.4105
Er344     Er     0.2962   0.9105   0.4538
Er345     Er     0.4105   0.9538   0.2962
Er346     Er     0.4538   0.9538   0.3395
Er347     Er     0.4538   0.9105   0.2962
Er348     Er     0.2962   0.8395   0.2962
Er349     Er     0.3395   0.7962   0.2962
Er350     Er     0.2962   0.7962   0.3395
Er351     Er     0.9538   0.2962   0.4105
Er352     Er     0.9538   0.3395   0.4538
Er353     Er     0.9105   0.2962   0.4538
Er354     Er     0.9538   0.4105   0.2962
Er355     Er     0.9538   0.4538   0.3395
Er356     Er     0.9105   0.4538   0.2962
Er357     Er     0.2038   0.0462   0.0895
Er358     Er     0.2038   0.0895   0.0462
Er359     Er     0.1605   0.0462   0.0462
Er360     Er     0.2962   0.4105   0.9538
Er361     Er     0.3395   0.4538   0.9538
Er362     Er     0.2962   0.4538   0.9105
Er363     Er     0.2038   0.1605   0.2038
Er364     Er     0.1605   0.2038   0.2038
Er365     Er     0.2038   0.2038   0.1605
Er366     Er     0.2962   0.2962   0.8395
Er367     Er     0.3395   0.2962   0.7962
Er368     Er     0.2962   0.3395   0.7962
Er369     Er     0.4538   0.7962   0.4105
Er370     Er     0.4105   0.7962   0.4538
Er371     Er     0.4538   0.8395   0.4538
Er372     Er     0.8395   0.2962   0.2962
Er373     Er     0.7962   0.3395   0.2962
Er374     Er     0.7962   0.2962   0.3395
Er375     Er     0.4538   0.4538   0.8395
Er376     Er     0.4105   0.4538   0.7962
Er377     Er     0.4538   0.4105   0.7962
Er378     Er     0.8395   0.4538   0.4538
Er379     Er     0.7962   0.4105   0.4538
Er380     Er     0.7962   0.4538   0.4105
Er381     Er     0.7962   0.8395   0.7962
Er382     Er     0.8395   0.7962   0.7962
Er383     Er     0.7962   0.7962   0.8395
Ti384     Ti     0.7814   0.8244   0.7386
Ti385     Ti     0.7386   0.8244   0.7814
Ti386     Ti     0.8244   0.7386   0.7814
Ti387     Ti     0.8244   0.7814   0.7386
Ti388     Ti     0.7814   0.7386   0.8244
Ti389     Ti     0.7386   0.7814   0.8244
Ti390     Ti     0.4686   0.4256   0.7386
Ti391     Ti     0.5114   0.4256   0.7814
Ti392     Ti     0.4256   0.4686   0.7386
Ti393     Ti     0.4256   0.5114   0.7814
Ti394     Ti     0.5114   0.4686   0.8244
Ti395     Ti     0.4686   0.5114   0.8244
Ti396     Ti     0.4256   0.7386   0.4686
Ti397     Ti     0.4256   0.7814   0.5114
Ti398     Ti     0.4686   0.7386   0.4256
Ti399     Ti     0.5114   0.7814   0.4256
Ti400     Ti     0.5114   0.8244   0.4686
Ti401     Ti     0.4686   0.8244   0.5114
Ti402     Ti     0.7386   0.4256   0.4686
Ti403     Ti     0.7814   0.4256   0.5114
Ti404     Ti     0.7386   0.4686   0.4256
Ti405     Ti     0.7814   0.5114   0.4256
Ti406     Ti     0.8244   0.4686   0.5114
Ti407     Ti     0.8244   0.5114   0.4686
Ti408     Ti     0.3244   0.2386   0.7814
Ti409     Ti     0.3244   0.2814   0.7386
Ti410     Ti     0.2814   0.3244   0.7386
Ti411     Ti     0.2386   0.3244   0.7814
Ti412     Ti     0.2386   0.2814   0.8244
Ti413     Ti     0.2814   0.2386   0.8244
Ti414     Ti     0.2814   0.9256   0.5114
Ti415     Ti     0.2386   0.9256   0.4686
Ti416     Ti     0.3244   0.9686   0.5114
Ti417     Ti     0.3244   0.0114   0.4686
Ti418     Ti     0.2386   0.9686   0.4256
Ti419     Ti     0.2814   0.0114   0.4256
Ti420     Ti     0.9686   0.9256   0.7386
Ti421     Ti     0.0114   0.9256   0.7814
Ti422     Ti     0.9686   0.0114   0.8244
Ti423     Ti     0.0114   0.9686   0.8244
Ti424     Ti     0.9256   0.9686   0.7386
Ti425     Ti     0.9256   0.0114   0.7814
Ti426     Ti     0.2386   0.7814   0.3244
Ti427     Ti     0.2814   0.7386   0.3244
Ti428     Ti     0.2814   0.8244   0.2386
Ti429     Ti     0.2386   0.8244   0.2814
Ti430     Ti     0.3244   0.7386   0.2814
Ti431     Ti     0.3244   0.7814   0.2386
Ti432     Ti     0.9256   0.7386   0.9686
Ti433     Ti     0.9256   0.7814   0.0114
Ti434     Ti     0.0114   0.8244   0.9686
Ti435     Ti     0.9686   0.8244   0.0114
Ti436     Ti     0.9686   0.7386   0.9256
Ti437     Ti     0.0114   0.7814   0.9256
Ti438     Ti     0.7386   0.9686   0.9256
Ti439     Ti     0.7814   0.0114   0.9256
Ti440     Ti     0.8244   0.9686   0.0114
Ti441     Ti     0.8244   0.0114   0.9686
Ti442     Ti     0.7386   0.9256   0.9686
Ti443     Ti     0.7814   0.9256   0.0114
Ti444     Ti     0.7814   0.3244   0.2386
Ti445     Ti     0.7386   0.3244   0.2814
Ti446     Ti     0.8244   0.2814   0.2386
Ti447     Ti     0.8244   0.2386   0.2814
Ti448     Ti     0.7386   0.2814   0.3244
Ti449     Ti     0.7814   0.2386   0.3244
Ti450     Ti     0.2386   0.4256   0.9686
Ti451     Ti     0.2814   0.4256   0.0114
Ti452     Ti     0.2386   0.4686   0.9256
Ti453     Ti     0.2814   0.5114   0.9256
Ti454     Ti     0.3244   0.5114   0.9686
Ti455     Ti     0.3244   0.4686   0.0114
Ti456     Ti     0.5114   0.2814   0.9256
Ti457     Ti     0.4686   0.2386   0.9256
Ti458     Ti     0.4256   0.2386   0.9686
Ti459     Ti     0.4256   0.2814   0.0114
Ti460     Ti     0.5114   0.3244   0.9686
Ti461     Ti     0.4686   0.3244   0.0114
Ti462     Ti     0.4686   0.9256   0.2386
Ti463     Ti     0.5114   0.9256   0.2814
Ti464     Ti     0.4256   0.9686   0.2386
Ti465     Ti     0.4256   0.0114   0.2814
Ti466     Ti     0.5114   0.9686   0.3244
Ti467     Ti     0.4686   0.0114   0.3244
Ti468     Ti     0.9256   0.2386   0.4686
Ti469     Ti     0.9256   0.2814   0.5114
Ti470     Ti     0.9686   0.2386   0.4256
Ti471     Ti     0.0114   0.2814   0.4256
Ti472     Ti     0.9686   0.3244   0.5114
Ti473     Ti     0.0114   0.3244   0.4686
Ti474     Ti     0.9256   0.5114   0.2814
Ti475     Ti     0.9256   0.4686   0.2386
Ti476     Ti     0.9686   0.4256   0.2386
Ti477     Ti     0.0114   0.4256   0.2814
Ti478     Ti     0.9686   0.5114   0.3244
Ti479     Ti     0.0114   0.4686   0.3244
Ti480     Ti     0.0314   0.2614   0.0744
Ti481     Ti     0.9886   0.2186   0.0744
Ti482     Ti     0.0314   0.1756   0.9886
Ti483     Ti     0.9886   0.1756   0.0314
Ti484     Ti     0.0744   0.2614   0.0314
Ti485     Ti     0.0744   0.2186   0.9886
Ti486     Ti     0.1756   0.0314   0.9886
Ti487     Ti     0.1756   0.9886   0.0314
Ti488     Ti     0.2614   0.0744   0.0314
Ti489     Ti     0.2186   0.0744   0.9886
Ti490     Ti     0.2186   0.9886   0.0744
Ti491     Ti     0.2614   0.0314   0.0744
Ti492     Ti     0.0744   0.0314   0.2614
Ti493     Ti     0.0744   0.9886   0.2186
Ti494     Ti     0.0314   0.0744   0.2614
Ti495     Ti     0.9886   0.0744   0.2186
Ti496     Ti     0.9886   0.0314   0.1756
Ti497     Ti     0.0314   0.9886   0.1756
Ti498     Ti     0.2614   0.1756   0.2186
Ti499     Ti     0.2186   0.1756   0.2614
Ti500     Ti     0.1756   0.2186   0.2614
Ti501     Ti     0.1756   0.2614   0.2186
Ti502     Ti     0.2186   0.2614   0.1756
Ti503     Ti     0.2614   0.2186   0.1756
Ti504     Ti     0.5744   0.2614   0.5314
Ti505     Ti     0.5744   0.2186   0.4886
Ti506     Ti     0.5314   0.2614   0.5744
Ti507     Ti     0.4886   0.2186   0.5744
Ti508     Ti     0.4886   0.1756   0.5314
Ti509     Ti     0.5314   0.1756   0.4886
Ti510     Ti     0.6756   0.9886   0.5314
Ti511     Ti     0.6756   0.0314   0.4886
Ti512     Ti     0.7186   0.9886   0.5744
Ti513     Ti     0.7614   0.0314   0.5744
Ti514     Ti     0.7186   0.0744   0.4886
Ti515     Ti     0.7614   0.0744   0.5314
Ti516     Ti     0.5744   0.5314   0.2614
Ti517     Ti     0.5744   0.4886   0.2186
Ti518     Ti     0.4886   0.5744   0.2186
Ti519     Ti     0.5314   0.5744   0.2614
Ti520     Ti     0.4886   0.5314   0.1756
Ti521     Ti     0.5314   0.4886   0.1756
Ti522     Ti     0.9886   0.7186   0.5744
Ti523     Ti     0.0314   0.7614   0.5744
Ti524     Ti     0.9886   0.6756   0.5314
Ti525     Ti     0.0314   0.6756   0.4886
Ti526     Ti     0.0744   0.7186   0.4886
Ti527     Ti     0.0744   0.7614   0.5314
Ti528     Ti     0.5744   0.9886   0.7186
Ti529     Ti     0.5744   0.0314   0.7614
Ti530     Ti     0.5314   0.9886   0.6756
Ti531     Ti     0.4886   0.0314   0.6756
Ti532     Ti     0.4886   0.0744   0.7186
Ti533     Ti     0.5314   0.0744   0.7614
Ti534     Ti     0.0744   0.4886   0.7186
Ti535     Ti     0.0744   0.5314   0.7614
Ti536     Ti     0.9886   0.5744   0.7186
Ti537     Ti     0.0314   0.5744   0.7614
Ti538     Ti     0.0314   0.4886   0.6756
Ti539     Ti     0.9886   0.5314   0.6756
Ti540     Ti     0.4886   0.7186   0.0744
Ti541     Ti     0.5314   0.7614   0.0744
Ti542     Ti     0.4886   0.6756   0.0314
Ti543     Ti     0.5314   0.6756   0.9886
Ti544     Ti     0.5744   0.7614   0.0314
Ti545     Ti     0.5744   0.7186   0.9886
Ti546     Ti     0.6756   0.2614   0.7186
Ti547     Ti     0.6756   0.2186   0.7614
Ti548     Ti     0.7614   0.1756   0.7186
Ti549     Ti     0.7186   0.1756   0.7614
Ti550     Ti     0.7186   0.2614   0.6756
Ti551     Ti     0.7614   0.2186   0.6756
Ti552     Ti     0.2186   0.4886   0.5744
Ti553     Ti     0.2614   0.5314   0.5744
Ti554     Ti     0.1756   0.5314   0.4886
Ti555     Ti     0.1756   0.4886   0.5314
Ti556     Ti     0.2614   0.5744   0.5314
Ti557     Ti     0.2186   0.5744   0.4886
Ti558     Ti     0.6756   0.5314   0.9886
Ti559     Ti     0.6756   0.4886   0.0314
Ti560     Ti     0.7186   0.5744   0.9886
Ti561     Ti     0.7614   0.5744   0.0314
Ti562     Ti     0.7186   0.4886   0.0744
Ti563     Ti     0.7614   0.5314   0.0744
Ti564     Ti     0.1756   0.7186   0.7614
Ti565     Ti     0.1756   0.7614   0.7186
Ti566     Ti     0.2614   0.6756   0.7186
Ti567     Ti     0.2186   0.6756   0.7614
Ti568     Ti     0.2614   0.7186   0.6756
Ti569     Ti     0.2186   0.7614   0.6756
Ti570     Ti     0.7186   0.7614   0.1756
Ti571     Ti     0.7614   0.7186   0.1756
Ti572     Ti     0.6756   0.7186   0.2614
Ti573     Ti     0.6756   0.7614   0.2186
Ti574     Ti     0.7614   0.6756   0.2186
Ti575     Ti     0.7186   0.6756   0.2614
He576     He     0.8587   0.1219   0.9733
He577     He     0.8781   0.1413   0.0267
S578     S     0.875   0.1042   0.9179
S579     S     0.8958   0.125   0.0821
H580     H     0.9319   0.1602   0.0469
H581     H     0.8398   0.0681   0.9531
He582     He     0.8587   0.9733   0.1219
He583     He     0.8781   0.0267   0.1413
S584     S     0.875   0.9179   0.1042
S585     S     0.8958   0.0821   0.125
H586     H     0.9319   0.0469   0.1602
H587     H     0.8398   0.9531   0.0681
He588     He     0.3781   0.1413   0.5267
He589     He     0.3587   0.1219   0.4733
S590     S     0.375   0.1042   0.4179
S591     S     0.3958   0.125   0.5821
H592     H     0.3398   0.0681   0.4531
H593     H     0.4319   0.1602   0.5469
He594     He     0.5267   0.1413   0.3781
He595     He     0.4733   0.1219   0.3587
S596     S     0.5821   0.125   0.3958
S597     S     0.4179   0.1042   0.375
H598     H     0.5469   0.1601   0.4319
H599     H     0.4531   0.0681   0.3398
He600     He     0.8781   0.1087   0.2233
He601     He     0.8587   0.1281   0.2767
S602     S     0.875   0.1458   0.3321
S603     S     0.8958   0.125   0.1679
H604     H     0.8398   0.1819   0.2969
H605     H     0.9319   0.0898   0.2031
He606     He     0.1087   0.8781   0.2233
He607     He     0.1281   0.8587   0.2767
S608     S     0.125   0.8958   0.1679
S609     S     0.1458   0.875   0.3321
H610     H     0.0898   0.9319   0.2031
H611     H     0.1819   0.8398   0.2969
He612     He     0.9733   0.8587   0.1219
He613     He     0.0267   0.8781   0.1413
S614     S     0.9179   0.875   0.1042
S615     S     0.0821   0.8958   0.125
H616     H     0.0469   0.9319   0.1601
H617     H     0.9531   0.8398   0.0681
He618     He     0.1219   0.8587   0.9733
He619     He     0.1413   0.8781   0.0267
S620     S     0.1042   0.875   0.9179
S621     S     0.125   0.8958   0.0821
H622     H     0.1601   0.9319   0.0469
H623     H     0.0681   0.8398   0.9531
He624     He     0.2233   0.8781   0.1087
He625     He     0.2767   0.8587   0.1281
S626     S     0.3321   0.875   0.1458
S627     S     0.1679   0.8958   0.125
H628     H     0.2969   0.8398   0.1819
H629     H     0.2031   0.9319   0.0898
He630     He     0.2233   0.3781   0.6087
He631     He     0.2767   0.3587   0.6281
S632     S     0.1679   0.3958   0.625
S633     S     0.3321   0.375   0.6458
H634     H     0.2969   0.3398   0.6819
H635     H     0.2031   0.4319   0.5898
He636     He     0.1219   0.9733   0.8587
He637     He     0.1413   0.0267   0.8781
S638     S     0.1042   0.9179   0.875
S639     S     0.125   0.0821   0.8958
H640     H     0.1602   0.0469   0.9319
H641     H     0.0681   0.9531   0.8398
He642     He     0.9733   0.1219   0.8587
He643     He     0.0267   0.1413   0.8781
S644     S     0.9179   0.1042   0.875
S645     S     0.0821   0.125   0.8958
H646     H     0.0469   0.1601   0.9319
H647     H     0.9531   0.0681   0.8398
He648     He     0.9733   0.3587   0.6219
He649     He     0.0267   0.3781   0.6413
S650     S     0.9179   0.375   0.6042
S651     S     0.0821   0.3958   0.625
H652     H     0.0469   0.4319   0.6602
H653     H     0.9531   0.3398   0.5681
He654     He     0.1087   0.5267   0.8719
He655     He     0.1281   0.4733   0.8913
S656     S     0.125   0.5821   0.8542
S657     S     0.1458   0.4179   0.875
H658     H     0.1819   0.4531   0.9102
H659     H     0.0898   0.5469   0.8181
He660     He     0.1087   0.2233   0.8781
He661     He     0.1281   0.2767   0.8587
S662     S     0.125   0.1679   0.8958
S663     S     0.1458   0.3321   0.875
H664     H     0.1819   0.2969   0.8398
H665     H     0.0898   0.2031   0.9319
He666     He     0.1087   0.3781   0.7233
He667     He     0.1281   0.3587   0.7767
S668     S     0.125   0.3958   0.6679
S669     S     0.1458   0.375   0.8321
H670     H     0.0898   0.4319   0.7031
H671     H     0.1819   0.3398   0.7969
He672     He     0.3587   0.9733   0.6219
He673     He     0.3781   0.0267   0.6413
S674     S     0.375   0.9179   0.6042
S675     S     0.3958   0.0821   0.625
H676     H     0.4319   0.0469   0.6602
H677     H     0.3398   0.9531   0.5681
He678     He     0.5267   0.1087   0.8719
He679     He     0.4733   0.1281   0.8913
S680     S     0.5821   0.125   0.8542
S681     S     0.4179   0.1458   0.875
H682     H     0.4531   0.1819   0.9102
H683     H     0.5469   0.0898   0.8181
He684     He     0.2233   0.1087   0.8781
He685     He     0.2767   0.1281   0.8587
S686     S     0.1679   0.125   0.8958
S687     S     0.3321   0.1458   0.875
H688     H     0.2969   0.1819   0.8398
H689     H     0.2031   0.0898   0.9319
He690     He     0.3781   0.1087   0.7233
He691     He     0.3587   0.1281   0.7767
S692     S     0.375   0.1458   0.8321
S693     S     0.3958   0.125   0.6679
H694     H     0.3398   0.1819   0.7969
H695     H     0.4319   0.0898   0.7031
He696     He     0.3781   0.2233   0.6087
He697     He     0.3587   0.2767   0.6281
S698     S     0.3958   0.1679   0.625
S699     S     0.375   0.3321   0.6458
H700     H     0.3398   0.2969   0.6819
H701     H     0.4319   0.2031   0.5898
He702     He     0.5267   0.3719   0.6087
He703     He     0.4733   0.3913   0.6281
S704     S     0.5821   0.3542   0.625
S705     S     0.4179   0.375   0.6458
H706     H     0.5469   0.3181   0.5898
H707     H     0.4531   0.4102   0.6819
He708     He     0.3719   0.5267   0.6087
He709     He     0.3913   0.4733   0.6281
S710     S     0.3542   0.5821   0.625
S711     S     0.375   0.4179   0.6458
H712     H     0.3181   0.5469   0.5898
H713     H     0.4102   0.4531   0.6819
He714     He     0.2233   0.6413   0.8719
He715     He     0.2767   0.6219   0.8913
S716     S     0.1679   0.625   0.8542
S717     S     0.3321   0.6042   0.875
H718     H     0.2969   0.5681   0.9102
H719     H     0.2031   0.6602   0.8181
He720     He     0.9733   0.6281   0.8913
He721     He     0.0267   0.6087   0.8719
S722     S     0.9179   0.6458   0.875
S723     S     0.0821   0.625   0.8542
H724     H     0.0469   0.5898   0.8181
H725     H     0.9531   0.6819   0.9102
He726     He     0.9733   0.8913   0.6281
He727     He     0.0267   0.8719   0.6087
S728     S     0.9179   0.875   0.6458
S729     S     0.0821   0.8542   0.625
H730     H     0.0469   0.8181   0.5898
H731     H     0.9531   0.9102   0.6819
He732     He     0.1219   0.7767   0.8913
He733     He     0.1413   0.7233   0.8719
S734     S     0.1042   0.8321   0.875
S735     S     0.125   0.6679   0.8542
H736     H     0.0681   0.7969   0.9102
H737     H     0.1602   0.7031   0.8181
He738     He     0.1413   0.8719   0.7233
He739     He     0.1219   0.8913   0.7767
S740     S     0.125   0.8542   0.6679
S741     S     0.1042   0.875   0.8321
H742     H     0.1601   0.8181   0.7031
H743     H     0.0681   0.9102   0.7969
He744     He     0.2233   0.8719   0.6413
He745     He     0.2767   0.8913   0.6219
S746     S     0.1679   0.8542   0.625
S747     S     0.3321   0.875   0.6042
H748     H     0.2969   0.9102   0.5681
H749     H     0.2031   0.8181   0.6602
He750     He     0.6413   0.5267   0.8781
He751     He     0.6219   0.4733   0.8587
S752     S     0.625   0.5821   0.8958
S753     S     0.6042   0.4179   0.875
H754     H     0.5681   0.4531   0.8398
H755     H     0.6602   0.5469   0.9319
He756     He     0.8781   0.5267   0.6413
He757     He     0.8587   0.4733   0.6219
S758     S     0.8958   0.5821   0.625
S759     S     0.875   0.4179   0.6042
H760     H     0.9319   0.5469   0.6602
H761     H     0.8398   0.4531   0.5681
He762     He     0.8913   0.9733   0.6281
He763     He     0.8719   0.0267   0.6087
S764     S     0.875   0.9179   0.6458
S765     S     0.8542   0.0821   0.625
H766     H     0.8181   0.0469   0.5898
H767     H     0.9102   0.9531   0.6819
He768     He     0.6281   0.9733   0.8913
He769     He     0.6087   0.0267   0.8719
S770     S     0.6458   0.9179   0.875
S771     S     0.625   0.0821   0.8542
H772     H     0.5898   0.0469   0.8181
H773     H     0.6819   0.9531   0.9102
He774     He     0.8913   0.1219   0.7767
He775     He     0.8719   0.1413   0.7233
S776     S     0.875   0.1042   0.8321
S777     S     0.8542   0.125   0.6679
H778     H     0.9102   0.0681   0.7969
H779     H     0.8181   0.1601   0.7031
He780     He     0.7233   0.1413   0.8719
He781     He     0.7767   0.1219   0.8913
S782     S     0.6679   0.125   0.8542
S783     S     0.8321   0.1042   0.875
H784     H     0.7031   0.1601   0.8181
H785     H     0.7969   0.0681   0.9102
He786     He     0.6219   0.2767   0.8913
He787     He     0.6413   0.2233   0.8719
S788     S     0.625   0.1679   0.8542
S789     S     0.6042   0.3321   0.875
H790     H     0.5681   0.2969   0.9102
H791     H     0.6602   0.2031   0.8181
He792     He     0.6413   0.3719   0.7233
He793     He     0.6219   0.3913   0.7767
S794     S     0.625   0.3542   0.6679
S795     S     0.6042   0.375   0.8321
H796     H     0.5681   0.4102   0.7969
H797     H     0.6602   0.3181   0.7031
He798     He     0.7233   0.3719   0.6413
He799     He     0.7767   0.3913   0.6219
S800     S     0.8321   0.375   0.6042
S801     S     0.6679   0.3542   0.625
H802     H     0.7969   0.4102   0.5681
H803     H     0.7031   0.3181   0.6602
He804     He     0.8719   0.2233   0.6413
He805     He     0.8913   0.2767   0.6219
S806     S     0.8542   0.1679   0.625
S807     S     0.875   0.3321   0.6042
H808     H     0.9102   0.2969   0.5681
H809     H     0.8181   0.2031   0.6602
He810     He     0.6087   0.5267   0.3719
He811     He     0.6281   0.4733   0.3913
S812     S     0.625   0.5821   0.3542
S813     S     0.6458   0.4179   0.375
H814     H     0.5898   0.5469   0.3181
H815     H     0.6819   0.4531   0.4102
He816     He     0.6087   0.3719   0.5267
He817     He     0.6281   0.3913   0.4733
S818     S     0.625   0.3542   0.5821
S819     S     0.6458   0.375   0.4179
H820     H     0.5898   0.3181   0.5469
H821     H     0.6819   0.4102   0.4531
He822     He     0.6281   0.8913   0.9733
He823     He     0.6087   0.8719   0.0267
S824     S     0.6458   0.875   0.9179
S825     S     0.625   0.8542   0.0821
H826     H     0.6819   0.9102   0.9531
H827     H     0.5898   0.8181   0.0469
He828     He     0.7233   0.8719   0.1413
He829     He     0.7767   0.8913   0.1219
S830     S     0.8321   0.875   0.1042
S831     S     0.6679   0.8542   0.125
H832     H     0.7969   0.9102   0.0681
H833     H     0.7031   0.8181   0.1602
He834     He     0.8913   0.7767   0.1219
He835     He     0.8719   0.7233   0.1413
S836     S     0.8542   0.6679   0.125
S837     S     0.875   0.8321   0.1042
H838     H     0.8181   0.7031   0.1601
H839     H     0.9102   0.7969   0.0681
He840     He     0.8913   0.6281   0.9733
He841     He     0.8719   0.6087   0.0267
S842     S     0.875   0.6458   0.9179
S843     S     0.8542   0.625   0.0821
H844     H     0.8181   0.5898   0.0469
H845     H     0.9102   0.6819   0.9531
He846     He     0.6219   0.3587   0.9733
He847     He     0.6413   0.3781   0.0267
S848     S     0.6042   0.375   0.9179
S849     S     0.625   0.3958   0.0821
H850     H     0.5681   0.3398   0.9531
H851     H     0.6602   0.4319   0.0469
He852     He     0.6219   0.9733   0.3587
He853     He     0.6413   0.0267   0.3781
S854     S     0.6042   0.9179   0.375
S855     S     0.625   0.0821   0.3958
H856     H     0.6602   0.0469   0.4319
H857     H     0.5681   0.9531   0.3398
He858     He     0.8719   0.1087   0.5267
He859     He     0.8913   0.1281   0.4733
S860     S     0.875   0.1458   0.4179
S861     S     0.8542   0.125   0.5821
H862     H     0.9102   0.1819   0.4531
H863     H     0.8181   0.0898   0.5469
He864     He     0.7767   0.1281   0.3587
He865     He     0.7233   0.1087   0.3781
S866     S     0.6679   0.125   0.3958
S867     S     0.8321   0.1458   0.375
H868     H     0.7969   0.1819   0.3398
H869     H     0.7031   0.0898   0.4319
He870     He     0.6087   0.2233   0.3781
He871     He     0.6281   0.2767   0.3587
S872     S     0.625   0.1679   0.3958
S873     S     0.6458   0.3321   0.375
H874     H     0.6819   0.2969   0.3398
H875     H     0.5898   0.2031   0.4319
He876     He     0.6087   0.3781   0.2233
He877     He     0.6281   0.3587   0.2767
S878     S     0.625   0.3958   0.1679
S879     S     0.6458   0.375   0.3321
H880     H     0.5898   0.4319   0.2031
H881     H     0.6819   0.3398   0.2969
He882     He     0.8781   0.2233   0.1087
He883     He     0.8587   0.2767   0.1281
S884     S     0.8958   0.1679   0.125
S885     S     0.875   0.3321   0.1458
H886     H     0.8398   0.2969   0.1819
H887     H     0.9319   0.2031   0.0898
He888     He     0.8719   0.5267   0.1087
He889     He     0.8913   0.4733   0.1281
S890     S     0.8542   0.5821   0.125
S891     S     0.875   0.4179   0.1458
H892     H     0.9102   0.4531   0.1819
H893     H     0.8181   0.5469   0.0898
He894     He     0.7233   0.3781   0.1087
He895     He     0.7767   0.3587   0.1281
S896     S     0.8321   0.375   0.1458
S897     S     0.6679   0.3958   0.125
H898     H     0.7969   0.3398   0.1819
H899     H     0.7031   0.4319   0.0898
He900     He     0.6413   0.8781   0.5267
He901     He     0.6219   0.8587   0.4733
S902     S     0.625   0.8958   0.5821
S903     S     0.6042   0.875   0.4179
H904     H     0.5681   0.8398   0.4531
H905     H     0.6602   0.9319   0.5469
He906     He     0.8781   0.6413   0.5267
He907     He     0.8587   0.6219   0.4733
S908     S     0.875   0.6042   0.4179
S909     S     0.8958   0.625   0.5821
H910     H     0.8398   0.5681   0.4531
H911     H     0.9319   0.6602   0.5469
He912     He     0.8719   0.6413   0.2233
He913     He     0.8913   0.6219   0.2767
S914     S     0.8542   0.625   0.1679
S915     S     0.875   0.6042   0.3321
H916     H     0.9102   0.5681   0.2969
H917     H     0.8181   0.6602   0.2031
He918     He     0.6413   0.8719   0.2233
He919     He     0.6219   0.8913   0.2767
S920     S     0.625   0.8542   0.1679
S921     S     0.6042   0.875   0.3321
H922     H     0.5681   0.9102   0.2969
H923     H     0.6602   0.8181   0.2031
He924     He     0.7233   0.6413   0.3719
He925     He     0.7767   0.6219   0.3913
S926     S     0.6679   0.625   0.3542
S927     S     0.8321   0.6042   0.375
H928     H     0.7969   0.5681   0.4102
H929     H     0.7031   0.6602   0.3181
He930     He     0.6413   0.7233   0.3719
He931     He     0.6219   0.7767   0.3913
S932     S     0.6042   0.8321   0.375
S933     S     0.625   0.6679   0.3542
H934     H     0.5681   0.7969   0.4102
H935     H     0.6602   0.7031   0.3181
He936     He     0.8781   0.7233   0.6087
He937     He     0.8587   0.7767   0.6281
S938     S     0.8958   0.6679   0.625
S939     S     0.875   0.8321   0.6458
H940     H     0.8398   0.7969   0.6819
H941     H     0.9319   0.7031   0.5898
He942     He     0.8781   0.6087   0.7233
He943     He     0.8587   0.6281   0.7767
S944     S     0.875   0.6458   0.8321
S945     S     0.8958   0.625   0.6679
H946     H     0.8398   0.6819   0.7969
H947     H     0.9319   0.5898   0.7031
He948     He     0.7233   0.6087   0.8781
He949     He     0.7767   0.6281   0.8587
S950     S     0.6679   0.625   0.8958
S951     S     0.8321   0.6458   0.875
H952     H     0.7969   0.6819   0.8398
H953     H     0.7031   0.5898   0.9319
He954     He     0.6087   0.7233   0.8781
He955     He     0.6281   0.7767   0.8587
S956     S     0.6458   0.8321   0.875
S957     S     0.625   0.6679   0.8958
H958     H     0.6819   0.7969   0.8398
H959     H     0.5898   0.7031   0.9319
He960     He     0.7233   0.8781   0.6087
He961     He     0.7767   0.8587   0.6281
S962     S     0.8321   0.875   0.6458
S963     S     0.6679   0.8958   0.625
H964     H     0.7969   0.8398   0.6819
H965     H     0.7031   0.9319   0.5898
He966     He     0.6087   0.8781   0.7233
He967     He     0.6281   0.8587   0.7767
S968     S     0.625   0.8958   0.6679
S969     S     0.6458   0.875   0.8321
H970     H     0.5898   0.9319   0.7031
H971     H     0.6819   0.8398   0.7969
He972     He     0.5267   0.8781   0.6413
He973     He     0.4733   0.8587   0.6219
S974     S     0.5821   0.8958   0.625
S975     S     0.4179   0.875   0.6042
H976     H     0.4531   0.8398   0.5681
H977     H     0.5469   0.9319   0.6602
He978     He     0.3719   0.6413   0.7233
He979     He     0.3913   0.6219   0.7767
S980     S     0.375   0.6042   0.8321
S981     S     0.3542   0.625   0.6679
H982     H     0.4102   0.5681   0.7969
H983     H     0.3181   0.6602   0.7031
He984     He     0.3719   0.7233   0.6413
He985     He     0.3913   0.7767   0.6219
S986     S     0.3542   0.6679   0.625
S987     S     0.375   0.8321   0.6042
H988     H     0.3181   0.7031   0.6602
H989     H     0.4102   0.7969   0.5681
He990     He     0.5267   0.6413   0.8781
He991     He     0.4733   0.6219   0.8587
S992     S     0.5821   0.625   0.8958
S993     S     0.4179   0.6042   0.875
H994     H     0.4531   0.5681   0.8398
H995     H     0.5469   0.6602   0.9319
He996     He     0.5267   0.6087   0.3719
He997     He     0.4733   0.6281   0.3913
S998     S     0.5821   0.625   0.3542
S999     S     0.4179   0.6458   0.375
H1000     H     0.5469   0.5898   0.3181
H1001     H     0.4531   0.6819   0.4102
He1002     He     0.3719   0.6087   0.5267
He1003     He     0.3913   0.6281   0.4733
S1004     S     0.375   0.6458   0.4179
S1005     S     0.3542   0.625   0.5821
H1006     H     0.4102   0.6819   0.4531
H1007     H     0.3181   0.5898   0.5469
He1008     He     0.9733   0.6219   0.3587
He1009     He     0.0267   0.6413   0.3781
S1010     S     0.9179   0.6042   0.375
S1011     S     0.0821   0.625   0.3958
H1012     H     0.0469   0.6602   0.4319
H1013     H     0.9531   0.5681   0.3398
He1014     He     0.1087   0.8719   0.5267
He1015     He     0.1281   0.8913   0.4733
S1016     S     0.125   0.8542   0.5821
S1017     S     0.1458   0.875   0.4179
H1018     H     0.1819   0.9102   0.4531
H1019     H     0.0898   0.8181   0.5469
He1020     He     0.1087   0.7233   0.3781
He1021     He     0.1281   0.7767   0.3587
S1022     S     0.1458   0.8321   0.375
S1023     S     0.125   0.6679   0.3958
H1024     H     0.1819   0.7969   0.3398
H1025     H     0.0898   0.7031   0.4319
He1026     He     0.2233   0.6087   0.3781
He1027     He     0.2767   0.6281   0.3587
S1028     S     0.1679   0.625   0.3958
S1029     S     0.3321   0.6458   0.375
H1030     H     0.2969   0.6819   0.3398
H1031     H     0.2031   0.5898   0.4319
He1032     He     0.3781   0.6087   0.2233
He1033     He     0.3587   0.6281   0.2767
S1034     S     0.375   0.6458   0.3321
S1035     S     0.3958   0.625   0.1679
H1036     H     0.3398   0.6819   0.2969
H1037     H     0.4319   0.5898   0.2031
He1038     He     0.3587   0.7767   0.1281
He1039     He     0.3781   0.7233   0.1087
S1040     S     0.3958   0.6679   0.125
S1041     S     0.375   0.8321   0.1458
H1042     H     0.4319   0.7031   0.0898
H1043     H     0.3398   0.7969   0.1819
He1044     He     0.5267   0.8719   0.1087
He1045     He     0.4733   0.8913   0.1281
S1046     S     0.5821   0.8542   0.125
S1047     S     0.4179   0.875   0.1458
H1048     H     0.4531   0.9102   0.1819
H1049     H     0.5469   0.8181   0.0898
He1050     He     0.3587   0.6219   0.9733
He1051     He     0.3781   0.6413   0.0267
S1052     S     0.375   0.6042   0.9179
S1053     S     0.3958   0.625   0.0821
H1054     H     0.4319   0.6602   0.0469
H1055     H     0.3398   0.5681   0.9531
He1056     He     0.1413   0.5267   0.3781
He1057     He     0.1219   0.4733   0.3587
S1058     S     0.125   0.5821   0.3958
S1059     S     0.1042   0.4179   0.375
H1060     H     0.0681   0.4531   0.3398
H1061     H     0.1602   0.5469   0.4319
He1062     He     0.1413   0.3781   0.5267
He1063     He     0.1219   0.3587   0.4733
S1064     S     0.125   0.3958   0.5821
S1065     S     0.1042   0.375   0.4179
H1066     H     0.1601   0.4319   0.5469
H1067     H     0.0681   0.3398   0.4531
He1068     He     0.3719   0.1413   0.2233
He1069     He     0.3913   0.1219   0.2767
S1070     S     0.3542   0.125   0.1679
S1071     S     0.375   0.1042   0.3321
H1072     H     0.3181   0.1601   0.2031
H1073     H     0.4102   0.0681   0.2969
He1074     He     0.3913   0.9733   0.1281
He1075     He     0.3719   0.0267   0.1087
S1076     S     0.375   0.9179   0.1458
S1077     S     0.3542   0.0821   0.125
H1078     H     0.3181   0.0469   0.0898
H1079     H     0.4102   0.9531   0.1819
He1080     He     0.3913   0.1281   0.9733
He1081     He     0.3719   0.1087   0.0267
S1082     S     0.375   0.1458   0.9179
S1083     S     0.3542   0.125   0.0821
H1084     H     0.3181   0.0898   0.0469
H1085     H     0.4102   0.1819   0.9531
He1086     He     0.3719   0.2233   0.1413
He1087     He     0.3913   0.2767   0.1219
S1088     S     0.3542   0.1679   0.125
S1089     S     0.375   0.3321   0.1042
H1090     H     0.3181   0.2031   0.1601
H1091     H     0.4102   0.2969   0.0681
He1092     He     0.5267   0.3781   0.1413
He1093     He     0.4733   0.3587   0.1219
S1094     S     0.5821   0.3958   0.125
S1095     S     0.4179   0.375   0.1042
H1096     H     0.5469   0.4319   0.1601
H1097     H     0.4531   0.3398   0.0681
He1098     He     0.3781   0.5267   0.1413
He1099     He     0.3587   0.4733   0.1219
S1100     S     0.3958   0.5821   0.125
S1101     S     0.375   0.4179   0.1042
H1102     H     0.4319   0.5469   0.1602
H1103     H     0.3398   0.4531   0.0681
He1104     He     0.2233   0.3719   0.1413
He1105     He     0.2767   0.3913   0.1219
S1106     S     0.1679   0.3542   0.125
S1107     S     0.3321   0.375   0.1042
H1108     H     0.2969   0.4102   0.0681
H1109     H     0.2031   0.3181   0.1602
He1110     He     0.1281   0.3913   0.9733
He1111     He     0.1087   0.3719   0.0267
S1112     S     0.1458   0.375   0.9179
S1113     S     0.125   0.3542   0.0821
H1114     H     0.1819   0.4102   0.9531
H1115     H     0.0898   0.3181   0.0469
He1116     He     0.2233   0.1413   0.3719
He1117     He     0.2767   0.1219   0.3913
S1118     S     0.1679   0.125   0.3542
S1119     S     0.3321   0.1042   0.375
H1120     H     0.2031   0.1601   0.3181
H1121     H     0.2969   0.0681   0.4102
He1122     He     0.1281   0.9733   0.3913
He1123     He     0.1087   0.0267   0.3719
S1124     S     0.1458   0.9179   0.375
S1125     S     0.125   0.0821   0.3542
H1126     H     0.0898   0.0469   0.3181
H1127     H     0.1819   0.9531   0.4102
He1128     He     0.9733   0.3913   0.1281
He1129     He     0.0267   0.3719   0.1087
S1130     S     0.9179   0.375   0.1458
S1131     S     0.0821   0.3542   0.125
H1132     H     0.0469   0.3181   0.0898
H1133     H     0.9531   0.4102   0.1819
He1134     He     0.1413   0.3719   0.2233
He1135     He     0.1219   0.3913   0.2767
S1136     S     0.1042   0.375   0.3321
S1137     S     0.125   0.3542   0.1679
H1138     H     0.0681   0.4102   0.2969
H1139     H     0.1601   0.3181   0.2031
He1140     He     0.1413   0.2233   0.3719
He1141     He     0.1219   0.2767   0.3913
S1142     S     0.125   0.1679   0.3542
S1143     S     0.1042   0.3321   0.375
H1144     H     0.0681   0.2969   0.4102
H1145     H     0.1602   0.2031   0.3181
He1146     He     0.9733   0.1281   0.3913
He1147     He     0.0267   0.1087   0.3719
S1148     S     0.9179   0.1458   0.375
S1149     S     0.0821   0.125   0.3542
H1150     H     0.0469   0.0898   0.3181
H1151     H     0.9531   0.1819   0.4102
Li1152     Li     0.6617   0.545   0.8238
Li1153     Li     0.1617   0.045   0.8238
Li1154     Li     0.9117   0.795   0.1762
Li1155     Li     0.795   0.1762   0.9117
Li1156     Li     0.4117   0.295   0.1762
Li1157     Li     0.1762   0.9117   0.795
Li1158     Li     0.455   0.1762   0.3383
Li1159     Li     0.1762   0.4117   0.295
Li1160     Li     0.705   0.6617   0.4262
Li1161     Li     0.6617   0.4262   0.705
Li1162     Li     0.295   0.1762   0.4117
Li1163     Li     0.1617   0.4262   0.205
Li1164     Li     0.205   0.1617   0.4262
Li1165     Li     0.3383   0.955   0.6762
Li1166     Li     0.3383   0.455   0.1762
Li1167     Li     0.1762   0.3383   0.455
Li1168     Li     0.295   0.4117   0.1762
Li1169     Li     0.705   0.1617   0.9262
Li1170     Li     0.8383   0.955   0.1762
Li1171     Li     0.1617   0.9262   0.705
Li1172     Li     0.0738   0.3383   0.795
Li1173     Li     0.8383   0.455   0.6762
Li1174     Li     0.9117   0.455   0.0738
Li1175     Li     0.955   0.1762   0.8383
Li1176     Li     0.955   0.0738   0.4117
Li1177     Li     0.1617   0.3238   0.545
Li1178     Li     0.955   0.4117   0.0738
Li1179     Li     0.9117   0.0738   0.455
Li1180     Li     0.9262   0.1617   0.705
Li1181     Li     0.545   0.1617   0.3238
Li1182     Li     0.4117   0.955   0.0738
Li1183     Li     0.1762   0.8383   0.955
Li1184     Li     0.0738   0.4117   0.955
Li1185     Li     0.455   0.9117   0.0738
Li1186     Li     0.795   0.9117   0.1762
Li1187     Li     0.0738   0.955   0.4117
Li1188     Li     0.1762   0.795   0.9117
Li1189     Li     0.0738   0.795   0.3383
Li1190     Li     0.3383   0.1762   0.455
Li1191     Li     0.9262   0.705   0.1617
Li1192     Li     0.455   0.0738   0.9117
Li1193     Li     0.0738   0.9117   0.455
Li1194     Li     0.455   0.3383   0.1762
Li1195     Li     0.0738   0.455   0.9117
Li1196     Li     0.4117   0.0738   0.955
Li1197     Li     0.9117   0.1762   0.795
Li1198     Li     0.705   0.0883   0.3238
Li1199     Li     0.295   0.9117   0.6762
Li1200     Li     0.0883   0.9262   0.545
Li1201     Li     0.295   0.3383   0.5738
Li1202     Li     0.0883   0.545   0.9262
Li1203     Li     0.545   0.0883   0.9262
Li1204     Li     0.9262   0.545   0.0883
Li1205     Li     0.545   0.9262   0.0883
Li1206     Li     0.3383   0.5738   0.295
Li1207     Li     0.9262   0.0883   0.545
Li1208     Li     0.045   0.1617   0.8238
Li1209     Li     0.1617   0.8238   0.045
Li1210     Li     0.045   0.8238   0.1617
Li1211     Li     0.4262   0.1617   0.205
Li1212     Li     0.045   0.0883   0.4262
Li1213     Li     0.9117   0.295   0.6762
Li1214     Li     0.9117   0.955   0.5738
Li1215     Li     0.4262   0.045   0.0883
Li1216     Li     0.955   0.6762   0.3383
Li1217     Li     0.795   0.6762   0.4117
Li1218     Li     0.955   0.5738   0.9117
Li1219     Li     0.0883   0.4262   0.045
Li1220     Li     0.5738   0.4117   0.455
Li1221     Li     0.6762   0.9117   0.295
Li1222     Li     0.955   0.9117   0.5738
Li1223     Li     0.0883   0.045   0.4262
Li1224     Li     0.5738   0.955   0.9117
Li1225     Li     0.045   0.4262   0.0883
Li1226     Li     0.9117   0.5738   0.955
Li1227     Li     0.4262   0.5883   0.545
Li1228     Li     0.705   0.5883   0.8238
Li1229     Li     0.4262   0.545   0.5883
Li1230     Li     0.4262   0.705   0.6617
Li1231     Li     0.5883   0.8238   0.705
Li1232     Li     0.5738   0.9117   0.955
Li1233     Li     0.6762   0.4117   0.795
Li1234     Li     0.955   0.3383   0.6762
Li1235     Li     0.5738   0.455   0.4117
Li1236     Li     0.6762   0.295   0.9117
Li1237     Li     0.5738   0.295   0.3383
Li1238     Li     0.205   0.8238   0.0883
Li1239     Li     0.4262   0.0883   0.045
Li1240     Li     0.455   0.5738   0.4117
Li1241     Li     0.5883   0.4262   0.545
Li1242     Li     0.6617   0.8238   0.545
Li1243     Li     0.5883   0.705   0.8238
Li1244     Li     0.6617   0.705   0.4262
Li1245     Li     0.705   0.4262   0.6617
Li1246     Li     0.545   0.4262   0.5883
Li1247     Li     0.4117   0.5738   0.455
Li1248     Li     0.9117   0.6762   0.295
Li1249     Li     0.4262   0.6617   0.705
Li1250     Li     0.545   0.5883   0.4262
Li1251     Li     0.4117   0.795   0.6762
Li1252     Li     0.545   0.6617   0.8238
Li1253     Li     0.4117   0.455   0.5738
Li1254     Li     0.8238   0.705   0.5883
Li1255     Li     0.8238   0.545   0.6617
Li1256     Li     0.455   0.4117   0.5738
Li1257     Li     0.795   0.4117   0.6762
Li1258     Li     0.5883   0.545   0.4262
Li1259     Li     0.545   0.8238   0.6617
Li1260     Li     0.705   0.8238   0.5883
Li1261     Li     0.8238   0.6617   0.545
Li1262     Li     0.3383   0.6762   0.955
Li1263     Li     0.8238   0.5883   0.705
Li1264     Li     0.4262   0.205   0.1617
Li1265     Li     0.3238   0.705   0.0883
Li1266     Li     0.795   0.0738   0.3383
Li1267     Li     0.4117   0.1762   0.295
Li1268     Li     0.0883   0.3238   0.705
Li1269     Li     0.3383   0.795   0.0738
Li1270     Li     0.1762   0.295   0.4117
Li1271     Li     0.1762   0.455   0.3383
Li1272     Li     0.1617   0.705   0.9262
Li1273     Li     0.3238   0.545   0.1617
Li1274     Li     0.0883   0.205   0.8238
Li1275     Li     0.295   0.6762   0.9117
Li1276     Li     0.5738   0.3383   0.295
Li1277     Li     0.8238   0.0883   0.205
Li1278     Li     0.705   0.9262   0.1617
Li1279     Li     0.3238   0.045   0.6617
Li1280     Li     0.9262   0.6617   0.205
Li1281     Li     0.045   0.5883   0.9262
Li1282     Li     0.045   0.6617   0.3238
Li1283     Li     0.205   0.9262   0.6617
Li1284     Li     0.045   0.9262   0.5883
Li1285     Li     0.9262   0.045   0.5883
Li1286     Li     0.5883   0.045   0.9262
Li1287     Li     0.545   0.3238   0.1617
Li1288     Li     0.9262   0.5883   0.045
Li1289     Li     0.5883   0.9262   0.045
Li1290     Li     0.6617   0.3238   0.045
Li1291     Li     0.0883   0.705   0.3238
Li1292     Li     0.205   0.4262   0.1617
Li1293     Li     0.3238   0.0883   0.705
Li1294     Li     0.205   0.0883   0.8238
Li1295     Li     0.8238   0.045   0.1617
Li1296     Li     0.705   0.3238   0.0883
Li1297     Li     0.8238   0.1617   0.045
Li1298     Li     0.3238   0.205   0.5883
Li1299     Li     0.5883   0.3238   0.205
Li1300     Li     0.6762   0.795   0.4117
Li1301     Li     0.6762   0.955   0.3383
Li1302     Li     0.4117   0.6762   0.795
Li1303     Li     0.6762   0.3383   0.955
Li1304     Li     0.3383   0.295   0.5738
Li1305     Li     0.9262   0.205   0.6617
Li1306     Li     0.6617   0.205   0.9262
Li1307     Li     0.1617   0.205   0.4262
Li1308     Li     0.8238   0.205   0.0883
Li1309     Li     0.1762   0.955   0.8383
Li1310     Li     0.0883   0.8238   0.205
Li1311     Li     0.795   0.3383   0.0738
Li1312     Li     0.0738   0.295   0.8383
Li1313     Li     0.8383   0.295   0.0738
Li1314     Li     0.955   0.8383   0.1762
Li1315     Li     0.8383   0.1762   0.955
Li1316     Li     0.295   0.5738   0.3383
Li1317     Li     0.6617   0.9262   0.205
Li1318     Li     0.3383   0.0738   0.795
Li1319     Li     0.3238   0.1617   0.545
Li1320     Li     0.1617   0.545   0.3238
Li1321     Li     0.205   0.6617   0.9262
Li1322     Li     0.205   0.5883   0.3238
Li1323     Li     0.205   0.3238   0.5883
Li1324     Li     0.0738   0.8383   0.295
Li1325     Li     0.295   0.0738   0.8383
Li1326     Li     0.795   0.5738   0.8383
Li1327     Li     0.6762   0.8383   0.455
Li1328     Li     0.045   0.3238   0.6617
Li1329     Li     0.5738   0.795   0.8383
Li1330     Li     0.8383   0.795   0.5738
Li1331     Li     0.6762   0.455   0.8383
Li1332     Li     0.3238   0.6617   0.045
Li1333     Li     0.8383   0.5738   0.795
Li1334     Li     0.8383   0.6762   0.455
Li1335     Li     0.455   0.6762   0.8383
Li1336     Li     0.795   0.8383   0.5738
Li1337     Li     0.6617   0.045   0.3238
Li1338     Li     0.455   0.8383   0.6762
Li1339     Li     0.5738   0.8383   0.795
Li1340     Li     0.3238   0.5883   0.205
Li1341     Li     0.5883   0.205   0.3238
Li1342     Li     0.295   0.8383   0.0738
Li1343     Li     0.8383   0.0738   0.295
Be1344     Be     0.947   0.7594   0.1399
Be1345     Be     0.7594   0.1399   0.947
Be1346     Be     0.1399   0.947   0.7594
Be1347     Be     0.803   0.9906   0.1399
Be1348     Be     0.7594   0.6101   0.803
Be1349     Be     0.6101   0.7594   0.803
Be1350     Be     0.803   0.4906   0.6399
Be1351     Be     0.9906   0.1399   0.803
Be1352     Be     0.6399   0.2594   0.947
Be1353     Be     0.6399   0.4906   0.803
Be1354     Be     0.803   0.6101   0.7594
Be1355     Be     0.1399   0.803   0.9906
Be1356     Be     0.7594   0.803   0.6101
Be1357     Be     0.947   0.6399   0.2594
Be1358     Be     0.2594   0.947   0.6399
Be1359     Be     0.303   0.4906   0.1399
Be1360     Be     0.1399   0.303   0.4906
Be1361     Be     0.803   0.2594   0.1101
Be1362     Be     0.947   0.4906   0.1101
Be1363     Be     0.947   0.1101   0.4906
Be1364     Be     0.4906   0.947   0.1101
Be1365     Be     0.7594   0.947   0.1399
Be1366     Be     0.1399   0.7594   0.947
Be1367     Be     0.4906   0.1101   0.947
Be1368     Be     0.1101   0.947   0.4906
Be1369     Be     0.1101   0.4906   0.947
Be1370     Be     0.1101   0.2594   0.803
Be1371     Be     0.947   0.1399   0.7594
Be1372     Be     0.947   0.9906   0.6101
Be1373     Be     0.9906   0.6101   0.947
Be1374     Be     0.9906   0.947   0.6101
Be1375     Be     0.6101   0.9906   0.947
Be1376     Be     0.947   0.6101   0.9906
Be1377     Be     0.6101   0.947   0.9906
Be1378     Be     0.3601   0.5094   0.197
Be1379     Be     0.9906   0.803   0.1399
Be1380     Be     0.803   0.1399   0.9906
Be1381     Be     0.3601   0.7406   0.053
Be1382     Be     0.8601   0.0094   0.197
Be1383     Be     0.1399   0.9906   0.803
Be1384     Be     0.947   0.2594   0.6399
Be1385     Be     0.6399   0.803   0.4906
Be1386     Be     0.6399   0.947   0.2594
Be1387     Be     0.2594   0.803   0.1101
Be1388     Be     0.803   0.1101   0.2594
Be1389     Be     0.803   0.7594   0.6101
Be1390     Be     0.803   0.6399   0.4906
Be1391     Be     0.4906   0.6399   0.803
Be1392     Be     0.053   0.3601   0.7406
Be1393     Be     0.4906   0.803   0.6399
Be1394     Be     0.6101   0.803   0.7594
Be1395     Be     0.7406   0.697   0.3899
Be1396     Be     0.7594   0.1101   0.303
Be1397     Be     0.1101   0.803   0.2594
Be1398     Be     0.447   0.2594   0.1399
Be1399     Be     0.303   0.7594   0.1101
Be1400     Be     0.4906   0.1399   0.303
Be1401     Be     0.2594   0.1101   0.803
Be1402     Be     0.697   0.3899   0.7406
Be1403     Be     0.1399   0.447   0.2594
Be1404     Be     0.0094   0.053   0.3899
Be1405     Be     0.7406   0.053   0.3601
Be1406     Be     0.3899   0.0094   0.053
Be1407     Be     0.053   0.3899   0.0094
Be1408     Be     0.053   0.0094   0.3899
Be1409     Be     0.0094   0.3899   0.053
Be1410     Be     0.3899   0.053   0.0094
Be1411     Be     0.8601   0.2406   0.053
Be1412     Be     0.053   0.8601   0.2406
Be1413     Be     0.303   0.9906   0.6399
Be1414     Be     0.053   0.2406   0.8601
Be1415     Be     0.2406   0.8601   0.053
Be1416     Be     0.8601   0.053   0.2406
Be1417     Be     0.6101   0.447   0.4906
Be1418     Be     0.197   0.7406   0.8899
Be1419     Be     0.6399   0.7594   0.447
Be1420     Be     0.447   0.6399   0.7594
Be1421     Be     0.3899   0.553   0.5094
Be1422     Be     0.7406   0.553   0.8601
Be1423     Be     0.3899   0.5094   0.553
Be1424     Be     0.3899   0.7406   0.697
Be1425     Be     0.553   0.8601   0.7406
Be1426     Be     0.197   0.3601   0.5094
Be1427     Be     0.6101   0.4906   0.447
Be1428     Be     0.6101   0.2594   0.303
Be1429     Be     0.8899   0.197   0.7406
Be1430     Be     0.5094   0.197   0.3601
Be1431     Be     0.2594   0.6101   0.303
Be1432     Be     0.4906   0.6101   0.447
Be1433     Be     0.553   0.3899   0.5094
Be1434     Be     0.697   0.8601   0.5094
Be1435     Be     0.553   0.7406   0.8601
Be1436     Be     0.697   0.7406   0.3899
Be1437     Be     0.7406   0.3899   0.697
Be1438     Be     0.5094   0.3899   0.553
Be1439     Be     0.447   0.6101   0.4906
Be1440     Be     0.3899   0.697   0.7406
Be1441     Be     0.5094   0.553   0.3899
Be1442     Be     0.5094   0.697   0.8601
Be1443     Be     0.447   0.4906   0.6101
Be1444     Be     0.8601   0.7406   0.553
Be1445     Be     0.8601   0.5094   0.697
Be1446     Be     0.4906   0.447   0.6101
Be1447     Be     0.697   0.5094   0.8601
Be1448     Be     0.7594   0.447   0.6399
Be1449     Be     0.553   0.5094   0.3899
Be1450     Be     0.5094   0.8601   0.697
Be1451     Be     0.7406   0.8601   0.553
Be1452     Be     0.8601   0.697   0.5094
Be1453     Be     0.8601   0.553   0.7406
Be1454     Be     0.0094   0.197   0.8601
Be1455     Be     0.3601   0.0094   0.697
Be1456     Be     0.197   0.8601   0.0094
Be1457     Be     0.197   0.0094   0.8601
Be1458     Be     0.0094   0.697   0.3601
Be1459     Be     0.0094   0.8601   0.197
Be1460     Be     0.8601   0.197   0.0094
Be1461     Be     0.697   0.3601   0.0094
Be1462     Be     0.3601   0.2406   0.553
Be1463     Be     0.3899   0.2406   0.197
Be1464     Be     0.553   0.3601   0.2406
Be1465     Be     0.2406   0.3899   0.197
Be1466     Be     0.8899   0.697   0.2406
Be1467     Be     0.197   0.3899   0.2406
Be1468     Be     0.2594   0.303   0.6101
Be1469     Be     0.197   0.2406   0.3899
Be1470     Be     0.2406   0.197   0.3899
Be1471     Be     0.303   0.2594   0.6101
Be1472     Be     0.2594   0.6399   0.947
Be1473     Be     0.2594   0.1399   0.447
Be1474     Be     0.697   0.2406   0.8899
Be1475     Be     0.303   0.6101   0.2594
Be1476     Be     0.3899   0.197   0.2406
Be1477     Be     0.1101   0.303   0.7594
Be1478     Be     0.447   0.1399   0.2594
Be1479     Be     0.2406   0.053   0.8601
Be1480     Be     0.1101   0.7594   0.303
Be1481     Be     0.303   0.1399   0.4906
Be1482     Be     0.4906   0.303   0.1399
Be1483     Be     0.1399   0.2594   0.447
Be1484     Be     0.1399   0.4906   0.303
Be1485     Be     0.6399   0.9906   0.303
Be1486     Be     0.053   0.7406   0.3601
Be1487     Be     0.3601   0.053   0.7406
Be1488     Be     0.053   0.8899   0.5094
Be1489     Be     0.2594   0.447   0.1399
Be1490     Be     0.053   0.5094   0.8899
Be1491     Be     0.5094   0.053   0.8899
Be1492     Be     0.7406   0.3601   0.053
Be1493     Be     0.8899   0.5094   0.053
Be1494     Be     0.5094   0.8899   0.053
Be1495     Be     0.8899   0.053   0.5094
Be1496     Be     0.6399   0.303   0.9906
Be1497     Be     0.303   0.1101   0.7594
Be1498     Be     0.2406   0.553   0.3601
Be1499     Be     0.7594   0.303   0.1101
Be1500     Be     0.9906   0.1101   0.447
Be1501     Be     0.9906   0.447   0.1101
Be1502     Be     0.447   0.9906   0.1101
Be1503     Be     0.1101   0.447   0.9906
Be1504     Be     0.1101   0.9906   0.447
Be1505     Be     0.447   0.1101   0.9906
Be1506     Be     0.7406   0.197   0.8899
Be1507     Be     0.7594   0.6399   0.447
Be1508     Be     0.197   0.8899   0.7406
Be1509     Be     0.0094   0.3601   0.697
Be1510     Be     0.3601   0.197   0.5094
Be1511     Be     0.0094   0.553   0.8899
Be1512     Be     0.6399   0.447   0.7594
Be1513     Be     0.197   0.5094   0.3601
Be1514     Be     0.0094   0.8899   0.553
Be1515     Be     0.3601   0.697   0.0094
Be1516     Be     0.8899   0.0094   0.553
Be1517     Be     0.697   0.0094   0.3601
Be1518     Be     0.553   0.0094   0.8899
Be1519     Be     0.5094   0.3601   0.197
Be1520     Be     0.8899   0.553   0.0094
Be1521     Be     0.447   0.7594   0.6399
Be1522     Be     0.8899   0.7406   0.197
Be1523     Be     0.553   0.8899   0.0094
Be1524     Be     0.7406   0.8899   0.197
Be1525     Be     0.2406   0.3601   0.553
Be1526     Be     0.2406   0.8899   0.697
Be1527     Be     0.3601   0.553   0.2406
Be1528     Be     0.8899   0.2406   0.697
Be1529     Be     0.553   0.2406   0.3601
Be1530     Be     0.9906   0.6399   0.303
Be1531     Be     0.9906   0.303   0.6399
Be1532     Be     0.303   0.6399   0.9906
Be1533     Be     0.697   0.8899   0.2406
Be1534     Be     0.6101   0.303   0.2594
Be1535     Be     0.2406   0.697   0.8899
V1536     V     0.2668   0.5272   0.9832
V1537     V     0.2332   0.2772   0.2332
V1538     V     0.2332   0.4728   0.5168
V1539     V     0.7772   0.7332   0.2332
V1540     V     0.2228   0.7668   0.2668
V1541     V     0.2668   0.7228   0.2668
V1542     V     0.9832   0.5272   0.2668
V1543     V     0.9832   0.7228   0.9832
V1544     V     0.7228   0.9832   0.9832
V1545     V     0.5272   0.2668   0.9832
V1546     V     0.9832   0.2668   0.5272
V1547     V     0.9832   0.9832   0.7228
V1548     V     0.4832   0.0272   0.2668
V1549     V     0.2772   0.2332   0.2332
V1550     V     0.5272   0.9832   0.2668
V1551     V     0.2772   0.5168   0.5168
V1552     V     0.2772   0.7332   0.7332
V1553     V     0.4728   0.5168   0.2332
V1554     V     0.2332   0.2332   0.2772
V1555     V     0.7228   0.2668   0.2668
V1556     V     0.5168   0.2772   0.5168
V1557     V     0.7332   0.2772   0.7332
V1558     V     0.2668   0.2228   0.7668
V1559     V     0.5168   0.5168   0.2772
V1560     V     0.4728   0.7332   0.0168
V1561     V     0.7332   0.2332   0.7772
V1562     V     0.0168   0.2332   0.9728
V1563     V     0.7668   0.2668   0.2228
V1564     V     0.7332   0.0168   0.4728
V1565     V     0.4728   0.2332   0.5168
V1566     V     0.4728   0.0168   0.7332
V1567     V     0.5168   0.4728   0.2332
V1568     V     0.2332   0.7772   0.7332
V1569     V     0.2332   0.9728   0.0168
V1570     V     0.2228   0.2668   0.7668
V1571     V     0.0168   0.7332   0.4728
V1572     V     0.2332   0.7332   0.7772
V1573     V     0.2668   0.9832   0.5272
V1574     V     0.0168   0.4728   0.7332
V1575     V     0.4832   0.5272   0.7668
V1576     V     0.0168   0.5168   0.7772
V1577     V     0.7332   0.5168   0.9728
V1578     V     0.9832   0.4832   0.2228
V1579     V     0.9832   0.2228   0.4832
V1580     V     0.0168   0.7772   0.5168
V1581     V     0.5168   0.9728   0.7332
V1582     V     0.2668   0.2668   0.7228
V1583     V     0.2332   0.5168   0.4728
V1584     V     0.0168   0.9728   0.2332
V1585     V     0.7772   0.2332   0.7332
V1586     V     0.5168   0.0168   0.7772
V1587     V     0.5168   0.2332   0.4728
V1588     V     0.4832   0.9832   0.2228
V1589     V     0.7772   0.0168   0.5168
V1590     V     0.7332   0.7772   0.2332
V1591     V     0.2228   0.4832   0.9832
V1592     V     0.7332   0.9728   0.5168
V1593     V     0.5168   0.7332   0.9728
V1594     V     0.2228   0.9832   0.4832
V1595     V     0.7332   0.4728   0.0168
V1596     V     0.7772   0.5168   0.0168
V1597     V     0.9728   0.7332   0.5168
V1598     V     0.9728   0.5168   0.7332
V1599     V     0.4832   0.2228   0.9832
V1600     V     0.5168   0.7772   0.0168
V1601     V     0.9832   0.7668   0.0272
V1602     V     0.7668   0.0272   0.9832
V1603     V     0.2668   0.0272   0.4832
V1604     V     0.0168   0.0168   0.2772
V1605     V     0.2772   0.0168   0.0168
V1606     V     0.0168   0.2772   0.0168
V1607     V     0.7332   0.7332   0.2772
V1608     V     0.9728   0.0168   0.2332
V1609     V     0.7668   0.9832   0.0272
V1610     V     0.9832   0.0272   0.7668
V1611     V     0.4832   0.2668   0.0272
V1612     V     0.0272   0.7668   0.9832
V1613     V     0.0272   0.9832   0.7668
V1614     V     0.2668   0.7668   0.2228
V1615     V     0.7668   0.2228   0.2668
V1616     V     0.9728   0.2332   0.0168
V1617     V     0.2668   0.4832   0.0272
V1618     V     0.0272   0.2668   0.4832
V1619     V     0.2332   0.0168   0.9728
V1620     V     0.7668   0.7228   0.7668
V1621     V     0.7668   0.5272   0.4832
V1622     V     0.5272   0.7668   0.4832
V1623     V     0.7228   0.4832   0.4832
V1624     V     0.7228   0.7668   0.7668
V1625     V     0.7668   0.7668   0.7228
V1626     V     0.5272   0.4832   0.7668
V1627     V     0.4832   0.7228   0.4832
V1628     V     0.4832   0.7668   0.5272
V1629     V     0.4832   0.4832   0.7228
V1630     V     0.0272   0.4832   0.2668
V1631     V     0.7668   0.4832   0.5272
B1632     B     0.7826   0.6641   0.7826
loop_
_geom_bond_atom_site_label_1
_geom_bond_atom_site_label_2
_geom_bond_distance
_geom_bond_site_symmetry_2
_ccdc_geom_bond_type
Ce1     S765    10.048   .     S
Ce1     S861    10.048   .     S
Ce1     Li1285    10.158   .     S
Ce1     Li1207    10.158   .     S
Ce1     Ce62    10.266   .     S
Ce2     S825    10.048   .     S
Ce2     S1046    10.048   .     S
Ce2     Li1289    10.158   .     S
Ce2     Li1205    10.158   .     S
Ce2     Ce7    10.266   .     S
Ce3     S843    10.048   .     S
Ce3     S890    10.048   .     S
Ce3     Li1288    10.158   .     S
Ce3     Li1204    10.158   .     S
Ce3     Ce82    10.266   .     S
Ce4     S680    10.048   .     S
Ce4     S771    10.048   .     S
Ce4     Li1203    10.158   .     S
Ce4     Li1286    10.158   .     S
Ce4     Ce81    10.266   .     S
Ce5     S723    10.048   .     S
Ce5     S656    10.048   .     S
Ce5     Li1281    10.158   .     S
Ce5     Li1202    10.158   .     S
Ce5     Ce79    10.266   .     S
Ce6     S1016    10.048   .     S
Ce6     S729    10.048   .     S
Ce6     Li1200    10.158   .     S
Ce6     Li1284    10.158   .     S
Ce6     Ce8    10.266   .     S
Ce7     S920    10.048   .     S
Ce7     S831    10.048   .     S
Ce7     Li1317    10.158   .     S
Ce7     Li1278    10.158   .     S
Ce8     S740    10.048   .     S
Ce8     S746    10.048   .     S
Ce8     Li1171    10.158   .     S
Ce8     Li1283    10.158   .     S
Ce9     S717    10.048   .     S
Ce9     S1052    10.048   .     S
Ce9     Li1275    10.158   .     S
Ce9     Li1262    10.158   .     S
Ce9     Ce77    10.266   .     S
Ce10     S1058    10.048   .     S
Ce10     S1028    10.048   .     S
Ce10     Li1320    10.158   .     S
Ce10     Li1322    10.158   .     S
Ce10     Ce38    10.266   .     S
Ce11     S1100    10.048   .     S
Ce11     S1035    10.048   .     S
Ce11     Li1273    10.158   .     S
Ce11     Li1340    10.158   .     S
Ce11     Ce12    10.266   .     S
Ce12     S1040    10.048   .     S
Ce12     S1053    10.048   .     S
Ce12     Li1265    10.158   .     S
Ce12     Li1332    10.158   .     S
Ce13     S651    10.048   .     S
Ce13     S668    10.048   .     S
Ce13     Li1328    10.158   .     S
Ce13     Li1268    10.158   .     S
Ce13     Ce23    10.266   .     S
Ce14     S1113    10.048   .     S
Ce14     S1131    10.048   .     S
Ce14     Li1219    10.158   .     S
Ce14     Li1225    10.158   .     S
Ce14     Ce57    10.266   .     S
Ce15     S1077    10.048   .     S
Ce15     S1083    10.048   .     S
Ce15     Li1215    10.158   .     S
Ce15     Li1239    10.158   .     S
Ce15     Ce18    10.266   .     S
Ce16     S1149    10.048   .     S
Ce16     S1125    10.048   .     S
Ce16     Li1212    10.158   .     S
Ce16     Li1223    10.158   .     S
Ce16     Ce55    10.266   .     S
Ce17     S878    10.048   .     S
Ce17     S1094    10.048   .     S
Ce17     Li1299    10.158   .     S
Ce17     Li1287    10.158   .     S
Ce17     Ce30    10.266   .     S
Ce18     S1088    10.048   .     S
Ce18     S1070    10.048   .     S
Ce18     Li1264    10.158   .     S
Ce18     Li1211    10.158   .     S
Ce19     S698    10.048   .     S
Ce19     S591    10.048   .     S
Ce19     Li1298    10.158   .     S
Ce19     Li1319    10.158   .     S
Ce19     Ce41    10.266   .     S
Ce20     S998    10.048   .     S
Ce20     S812    10.048   .     S
Ce20     Li1250    10.158   .     S
Ce20     Li1258    10.158   .     S
Ce20     Ce96    10.266   .     S
Ce21     S818    10.048   .     S
Ce21     S704    10.048   .     S
Ce21     Li1241    10.158   .     S
Ce21     Li1246    10.158   .     S
Ce21     Ce95    10.266   .     S
Ce22     S596    10.048   .     S
Ce22     S872    10.048   .     S
Ce22     Li1181    10.158   .     S
Ce22     Li1341    10.158   .     S
Ce22     Ce27    10.266   .     S
Ce23     S632    10.048   .     S
Ce23     S1064    10.048   .     S
Ce23     Li1323    10.158   .     S
Ce23     Li1177    10.158   .     S
Ce24     S1005    10.048   .     S
Ce24     S710    10.048   .     S
Ce24     Li1227    10.158   .     S
Ce24     Li1229    10.158   .     S
Ce24     Ce45    10.266   .     S
Ce25     S602    10.048   .     S
Ce25     S867    10.048   .     S
Ce25     Li1343    10.158   .     S
Ce25     Li1266    10.158   .     S
Ce25     Ce36    10.266   .     S
Ce26     S626    10.048   .     S
Ce26     S1041    10.048   .     S
Ce26     Li1342    10.158   .     S
Ce26     Li1269    10.158   .     S
Ce26     Ce35    10.266   .     S
Ce27     S866    10.048   .     S
Ce27     S855    10.048   .     S
Ce27     Li1198    10.158   .     S
Ce27     Li1337    10.158   .     S
Ce28     S807    10.048   .     S
Ce28     S650    10.048   .     S
Ce28     Li1213    10.158   .     S
Ce28     Li1234    10.158   .     S
Ce28     Ce72    10.266   .     S
Ce29     S1112    10.048   .     S
Ce29     S657    10.048   .     S
Ce29     Li1184    10.158   .     S
Ce29     Li1195    10.158   .     S
Ce29     Ce48    10.266   .     S
Ce30     S897    10.048   .     S
Ce30     S849    10.048   .     S
Ce30     Li1296    10.158   .     S
Ce30     Li1290    10.158   .     S
Ce31     S1124    10.048   .     S
Ce31     S1017    10.048   .     S
Ce31     Li1187    10.158   .     S
Ce31     Li1193    10.158   .     S
Ce31     Ce47    10.266   .     S
Ce32     S681    10.048   .     S
Ce32     S1082    10.048   .     S
Ce32     Li1192    10.158   .     S
Ce32     Li1196    10.158   .     S
Ce32     Ce34    10.266   .     S
Ce33     S975    10.048   .     S
Ce33     S987    10.048   .     S
Ce33     Li1338    10.158   .     S
Ce33     Li1251    10.158   .     S
Ce33     Ce66    10.266   .     S
Ce34     S692    10.048   .     S
Ce34     S687    10.048   .     S
Ce34     Li1318    10.158   .     S
Ce34     Li1325    10.158   .     S
Ce35     S1076    10.048   .     S
Ce35     S1047    10.048   .     S
Ce35     Li1182    10.158   .     S
Ce35     Li1185    10.158   .     S
Ce36     S1148    10.048   .     S
Ce36     S860    10.048   .     S
Ce36     Li1176    10.158   .     S
Ce36     Li1179    10.158   .     S
Ce37     S891    10.048   .     S
Ce37     S1130    10.048   .     S
Ce37     Li1174    10.158   .     S
Ce37     Li1178    10.158   .     S
Ce37     Ce44    10.266   .     S
Ce38     S1023    10.048   .     S
Ce38     S1011    10.048   .     S
Ce38     Li1291    10.158   .     S
Ce38     Li1282    10.158   .     S
Ce39     S770    10.048   .     S
Ce39     S824    10.048   .     S
Ce39     Li1224    10.158   .     S
Ce39     Li1232    10.158   .     S
Ce39     Ce65    10.266   .     S
Ce40     S722    10.048   .     S
Ce40     S842    10.048   .     S
Ce40     Li1218    10.158   .     S
Ce40     Li1226    10.158   .     S
Ce40     Ce68    10.266   .     S
Ce41     S675    10.048   .     S
Ce41     S693    10.048   .     S
Ce41     Li1279    10.158   .     S
Ce41     Li1293    10.158   .     S
Ce42     S927    10.048   .     S
Ce42     S908    10.048   .     S
Ce42     Li1217    10.158   .     S
Ce42     Li1334    10.158   .     S
Ce42     Ce60    10.266   .     S
Ce43     S764    10.048   .     S
Ce43     S728    10.048   .     S
Ce43     Li1214    10.158   .     S
Ce43     Li1222    10.158   .     S
Ce43     Ce61    10.266   .     S
Ce44     S885    10.048   .     S
Ce44     S896    10.048   .     S
Ce44     Li1313    10.158   .     S
Ce44     Li1311    10.158   .     S
Ce45     S986    10.048   .     S
Ce45     S981    10.048   .     S
Ce45     Li1230    10.158   .     S
Ce45     Li1249    10.158   .     S
Ce46     S921    10.048   .     S
Ce46     S854    10.048   .     S
Ce46     Li1221    10.158   .     S
Ce46     Li1301    10.158   .     S
Ce46     Ce78    10.266   .     S
Ce47     S609    10.048   .     S
Ce47     S1022    10.048   .     S
Ce47     Li1324    10.158   .     S
Ce47     Li1189    10.158   .     S
Ce48     S669    10.048   .     S
Ce48     S663    10.048   .     S
Ce48     Li1172    10.158   .     S
Ce48     Li1312    10.158   .     S
Ce49     S620    10.048   .     S
Ce49     S734    10.048   .     S
Ce49     Li1183    10.158   .     S
Ce49     Li1188    10.158   .     S
Ce49     Ce88    10.266   .     S
Ce50     S644    10.048   .     S
Ce50     S776    10.048   .     S
Ce50     Li1175    10.158   .     S
Ce50     Li1197    10.158   .     S
Ce50     Ce90    10.266   .     S
Ce51     S584    10.048   .     S
Ce51     S830    10.048   .     S
Ce51     Li1170    10.158   .     S
Ce51     Li1186    10.158   .     S
Ce51     Ce91    10.266   .     S
Ce52     S615    10.048   .     S
Ce52     S608    10.048   .     S
Ce52     Li1210    10.158   .     S
Ce52     Li1310    10.158   .     S
Ce52     Ce54    10.266   .     S
Ce53     S585    10.048   .     S
Ce53     S603    10.048   .     S
Ce53     Li1295    10.158   .     S
Ce53     Li1277    10.158   .     S
Ce53     Ce59    10.266   .     S
Ce54     S621    10.048   .     S
Ce54     S627    10.048   .     S
Ce54     Li1209    10.158   .     S
Ce54     Li1238    10.158   .     S
Ce55     S1142    10.048   .     S
Ce55     S1118    10.048   .     S
Ce55     Li1307    10.158   .     S
Ce55     Li1164    10.158   .     S
Ce56     S645    10.048   .     S
Ce56     S662    10.048   .     S
Ce56     Li1208    10.158   .     S
Ce56     Li1274    10.158   .     S
Ce56     Ce67    10.266   .     S
Ce57     S1106    10.048   .     S
Ce57     S1137    10.048   .     S
Ce57     Li1292    10.158   .     S
Ce57     Li1163    10.158   .     S
Ce58     S1107    10.048   .     S
Ce58     S1101    10.048   .     S
Ce58     Li1168    10.158   .     S
Ce58     Li1166    10.158   .     S
Ce58     Ce94    10.266   .     S
Ce59     S884    10.048   .     S
Ce59     S579    10.048   .     S
Ce59     Li1308    10.158   .     S
Ce59     Li1297    10.158   .     S
Ce60     S1010    10.048   .     S
Ce60     S915    10.048   .     S
Ce60     Li1216    10.158   .     S
Ce60     Li1248    10.158   .     S
Ce61     S939    10.048   .     S
Ce61     S962    10.048   .     S
Ce61     Li1330    10.158   .     S
Ce61     Li1336    10.158   .     S
Ce62     S777    10.048   .     S
Ce62     S806    10.048   .     S
Ce62     Li1180    10.158   .     S
Ce62     Li1305    10.158   .     S
Ce63     S795    10.048   .     S
Ce63     S753    10.048   .     S
Ce63     Li1233    10.158   .     S
Ce63     Li1331    10.158   .     S
Ce63     Ce64    10.266   .     S
Ce64     S848    10.048   .     S
Ce64     S789    10.048   .     S
Ce64     Li1303    10.158   .     S
Ce64     Li1236    10.158   .     S
Ce65     S956    10.048   .     S
Ce65     S969    10.048   .     S
Ce65     Li1329    10.158   .     S
Ce65     Li1339    10.158   .     S
Ce66     S747    10.048   .     S
Ce66     S674    10.048   .     S
Ce66     Li1199    10.158   .     S
Ce66     Li1165    10.158   .     S
Ce67     S639    10.048   .     S
Ce67     S686    10.048   .     S
Ce67     Li1153    10.158   .     S
Ce67     Li1294    10.158   .     S
Ce68     S951    10.048   .     S
Ce68     S944    10.048   .     S
Ce68     Li1326    10.158   .     S
Ce68     Li1333    10.158   .     S
Ce69     S1065    10.048   .     S
Ce69     S1143    10.048   .     S
Ce69     Li1167    10.158   .     S
Ce69     Li1270    10.158   .     S
Ce69     Ce92    10.266   .     S
Ce70     S590    10.048   .     S
Ce70     S1119    10.048   .     S
Ce70     Li1190    10.158   .     S
Ce70     Li1162    10.158   .     S
Ce70     Ce93    10.266   .     S
Ce71     S1029    10.048   .     S
Ce71     S1034    10.048   .     S
Ce71     Li1316    10.158   .     S
Ce71     Li1206    10.158   .     S
Ce71     Ce74    10.266   .     S
Ce72     S759    10.048   .     S
Ce72     S800    10.048   .     S
Ce72     Li1173    10.158   .     S
Ce72     Li1257    10.158   .     S
Ce73     S711    10.048   .     S
Ce73     S705    10.048   .     S
Ce73     Li1253    10.158   .     S
Ce73     Li1256    10.158   .     S
Ce73     Ce76    10.266   .     S
Ce74     S999    10.048   .     S
Ce74     S1004    10.048   .     S
Ce74     Li1240    10.158   .     S
Ce74     Li1247    10.158   .     S
Ce75     S873    10.048   .     S
Ce75     S879    10.048   .     S
Ce75     Li1237    10.158   .     S
Ce75     Li1276    10.158   .     S
Ce75     Ce80    10.266   .     S
Ce76     S633    10.048   .     S
Ce76     S699    10.048   .     S
Ce76     Li1201    10.158   .     S
Ce76     Li1304    10.158   .     S
Ce77     S980    10.048   .     S
Ce77     S993    10.048   .     S
Ce77     Li1302    10.158   .     S
Ce77     Li1335    10.158   .     S
Ce78     S903    10.048   .     S
Ce78     S932    10.048   .     S
Ce78     Li1327    10.158   .     S
Ce78     Li1300    10.158   .     S
Ce79     S735    10.048   .     S
Ce79     S716    10.048   .     S
Ce79     Li1272    10.158   .     S
Ce79     Li1321    10.158   .     S
Ce80     S819    10.048   .     S
Ce80     S813    10.048   .     S
Ce80     Li1220    10.158   .     S
Ce80     Li1235    10.158   .     S
Ce81     S782    10.048   .     S
Ce81     S788    10.048   .     S
Ce81     Li1169    10.158   .     S
Ce81     Li1306    10.158   .     S
Ce82     S914    10.048   .     S
Ce82     S836    10.048   .     S
Ce82     Li1280    10.158   .     S
Ce82     Li1191    10.158   .     S
Ce83     S950    10.048   .     S
Ce83     S752    10.048   .     S
Ce83     Li1228    10.158   .     S
Ce83     Li1152    10.158   .     S
Ce83     Ce84    10.266   .     S
Ce84     S957    10.048   .     S
Ce84     S992    10.048   .     S
Ce84     Li1243    10.158   .     S
Ce84     Li1252    10.158   .     S
Ce85     S938    10.048   .     S
Ce85     S909    10.048   .     S
Ce85     Li1254    10.158   .     S
Ce85     Li1261    10.158   .     S
Ce85     Ce87    10.266   .     S
Ce86     S968    10.048   .     S
Ce86     S974    10.048   .     S
Ce86     Li1231    10.158   .     S
Ce86     Li1259    10.158   .     S
Ce86     Ce89    10.266   .     S
Ce87     S758    10.048   .     S
Ce87     S945    10.048   .     S
Ce87     Li1255    10.158   .     S
Ce87     Li1263    10.158   .     S
Ce88     S741    10.048   .     S
Ce88     S638    10.048   .     S
Ce88     Li1157    10.158   .     S
Ce88     Li1309    10.158   .     S
Ce89     S902    10.048   .     S
Ce89     S963    10.048   .     S
Ce89     Li1242    10.158   .     S
Ce89     Li1260    10.158   .     S
Ce90     S578    10.048   .     S
Ce90     S783    10.048   .     S
Ce90     Li1315    10.158   .     S
Ce90     Li1155    10.158   .     S
Ce91     S614    10.048   .     S
Ce91     S837    10.048   .     S
Ce91     Li1314    10.158   .     S
Ce91     Li1154    10.158   .     S
Ce92     S1136    10.048   .     S
Ce92     S1059    10.048   .     S
Ce92     Li1159    10.158   .     S
Ce92     Li1271    10.158   .     S
Ce93     S1071    10.048   .     S
Ce93     S597    10.048   .     S
Ce93     Li1267    10.158   .     S
Ce93     Li1158    10.158   .     S
Ce94     S1089    10.048   .     S
Ce94     S1095    10.048   .     S
Ce94     Li1156    10.158   .     S
Ce94     Li1194    10.158   .     S
Ce95     S801    10.048   .     S
Ce95     S794    10.048   .     S
Ce95     Li1245    10.158   .     S
Ce95     Li1161    10.158   .     S
Ce96     S926    10.048   .     S
Ce96     S933    10.048   .     S
Ce96     Li1160    10.158   .     S
Ce96     Li1244    10.158   .     S
B97     H713    10.045   .     S
B97     H707    10.045   .     S
B97     Be1443    10.135   .     S
B97     Be1446    10.135   .     S
B97     V1629    10.232   .     S
B98     H1001    10.045   .     S
B98     H1006    10.045   .     S
B98     Be1432    10.135   .     S
B98     Be1439    10.135   .     S
B98     V1627    10.232   .     S
B99     H874    10.045   .     S
B99     H881    10.045   .     S
B99     Be1428    10.135   .     S
B99     Be1534    10.135   .     S
B99     V1555    10.232   .     S
B100     H821    10.045   .     S
B100     H815    10.045   .     S
B100     Be1417    10.135   .     S
B100     Be1427    10.135   .     S
B100     V1623    10.232   .     S
B101     H1115    10.045   .     S
B101     H1132    10.045   .     S
B101     Be1407    10.135   .     S
B101     Be1409    10.135   .     S
B101     V1606    10.232   .     S
B102     H1078    10.045   .     S
B102     H1084    10.045   .     S
B102     Be1406    10.135   .     S
B102     Be1410    10.135   .     S
B102     V1605    10.232   .     S
B103     H1150    10.045   .     S
B103     H1126    10.045   .     S
B103     Be1404    10.135   .     S
B103     Be1408    10.135   .     S
B103     V1604    10.232   .     S
B104     H1030    10.045   .     S
B104     H1036    10.045   .     S
B104     Be1431    10.135   .     S
B104     Be1475    10.135   .     S
B104     V1541    10.232   .     S
B105     H1091    10.045   .     S
B105     H1097    10.045   .     S
B105     Be1398    10.135   .     S
B105     Be1482    10.135   .     S
B105     V1611    10.232   .     S
B106     H592    10.045   .     S
B106     H1121    10.045   .     S
B106     Be1481    10.135   .     S
B106     Be1473    10.135   .     S
B106     V1603    10.232   .     S
B107     H634    10.045   .     S
B107     H700    10.045   .     S
B107     Be1468    10.135   .     S
B107     Be1471    10.135   .     S
B107     V1582    10.232   .     S
B108     H622    10.045   .     S
B108     H629    10.045   .     S
B108     Be1456    10.135   .     S
B108     Be1415    10.135   .     S
B108     V1569    10.232   .     S
B109     H773    10.045   .     S
B109     H826    10.045   .     S
B109     Be1375    10.135   .     S
B109     Be1377    10.135   .     S
B109     V1544    10.232   .     S
B110     H725    10.045   .     S
B110     H845    10.045   .     S
B110     Be1373    10.135   .     S
B110     Be1376    10.135   .     S
B110     V1543    10.232   .     S
B111     H1090    10.045   .     S
B111     H1072    10.045   .     S
B111     Be1463    10.135   .     S
B111     Be1476    10.135   .     S
B111     V1549    10.232   .     S
B112     H767    10.045   .     S
B112     H731    10.045   .     S
B112     Be1372    10.135   .     S
B112     Be1374    10.135   .     S
B112     V1547    10.232   .     S
B113     H1109    10.045   .     S
B113     H1139    10.045   .     S
B113     Be1465    10.135   .     S
B113     Be1467    10.135   .     S
B113     V1537    10.232   .     S
B114     H1108    10.045   .     S
B114     H1103    10.045   .     S
B114     Be1489    10.135   .     S
B114     Be1359    10.135   .     S
B114     V1617    10.232   .     S
B115     H737    10.045   .     S
B115     H719    10.045   .     S
B115     Be1418    10.135   .     S
B115     Be1535    10.135   .     S
B115     V1572    10.232   .     S
B116     H718    10.045   .     S
B116     H1055    10.045   .     S
B116     Be1472    10.135   .     S
B116     Be1532    10.135   .     S
B116     V1536    10.232   .     S
B117     H742    10.045   .     S
B117     H749    10.045   .     S
B117     Be1508    10.135   .     S
B117     Be1526    10.135   .     S
B117     V1568    10.232   .     S
B118     H635    10.045   .     S
B118     H1066    10.045   .     S
B118     Be1525    10.135   .     S
B118     Be1426    10.135   .     S
B118     V1538    10.232   .     S
B119     H748    10.045   .     S
B119     H677    10.045   .     S
B119     Be1358    10.135   .     S
B119     Be1413    10.135   .     S
B119     V1573    10.232   .     S
B120     H923    10.045   .     S
B120     H833    10.045   .     S
B120     Be1533    10.135   .     S
B120     Be1524    10.135   .     S
B120     V1590    10.232   .     S
B121     H1145    10.045   .     S
B121     H1120    10.045   .     S
B121     Be1469    10.135   .     S
B121     Be1470    10.135   .     S
B121     V1554    10.232   .     S
B122     H646    10.045   .     S
B122     H665    10.045   .     S
B122     Be1454    10.135   .     S
B122     Be1414    10.135   .     S
B122     V1562    10.232   .     S
B123     H917    10.045   .     S
B123     H838    10.045   .     S
B123     Be1466    10.135   .     S
B123     Be1522    10.135   .     S
B123     V1539    10.232   .     S
B124     H1138    10.045   .     S
B124     H1060    10.045   .     S
B124     Be1403    10.135   .     S
B124     Be1484    10.135   .     S
B124     V1630    10.232   .     S
B125     H827    10.045   .     S
B125     H1049    10.045   .     S
B125     Be1523    10.135   .     S
B125     Be1494    10.135   .     S
B125     V1600    10.232   .     S
B126     H844    10.045   .     S
B126     H893    10.045   .     S
B126     Be1520    10.135   .     S
B126     Be1493    10.135   .     S
B126     V1596    10.232   .     S
B127     H683    10.045   .     S
B127     H772    10.045   .     S
B127     Be1491    10.135   .     S
B127     Be1518    10.135   .     S
B127     V1586    10.232   .     S
B128     H869    10.045   .     S
B128     H856    10.045   .     S
B128     Be1405    10.135   .     S
B128     Be1517    10.135   .     S
B128     V1564    10.232   .     S
B129     H766    10.045   .     S
B129     H863    10.045   .     S
B129     Be1516    10.135   .     S
B129     Be1495    10.135   .     S
B129     V1589    10.232   .     S
B130     H1042    10.045   .     S
B130     H1054    10.045   .     S
B130     Be1381    10.135   .     S
B130     Be1515    10.135   .     S
B130     V1560    10.232   .     S
B131     H1019    10.045   .     S
B131     H730    10.045   .     S
B131     Be1488    10.135   .     S
B131     Be1514    10.135   .     S
B131     V1580    10.232   .     S
B132     H724    10.045   .     S
B132     H659    10.045   .     S
B132     Be1511    10.135   .     S
B132     Be1490    10.135   .     S
B132     V1576    10.232   .     S
B133     H652    10.045   .     S
B133     H670    10.045   .     S
B133     Be1509    10.135   .     S
B133     Be1392    10.135   .     S
B133     V1574    10.232   .     S
B134     H784    10.045   .     S
B134     H791    10.045   .     S
B134     Be1506    10.135   .     S
B134     Be1474    10.135   .     S
B134     V1561    10.232   .     S
B135     H598    10.045   .     S
B135     H875    10.045   .     S
B135     Be1430    10.135   .     S
B135     Be1529    10.135   .     S
B135     V1587    10.232   .     S
B136     H1013    10.045   .     S
B136     H916    10.045   .     S
B136     Be1530    10.135   .     S
B136     Be1357    10.135   .     S
B136     V1542    10.232   .     S
B137     H976    10.045   .     S
B137     H989    10.045   .     S
B137     Be1393    10.135   .     S
B137     Be1521    10.135   .     S
B137     V1628    10.232   .     S
B138     H779    10.045   .     S
B138     H809    10.045   .     S
B138     Be1429    10.135   .     S
B138     Be1528    10.135   .     S
B138     V1585    10.232   .     S
B139     H1102    10.045   .     S
B139     H1037    10.045   .     S
B139     Be1378    10.135   .     S
B139     Be1527    10.135   .     S
B139     V1553    10.232   .     S
B140     H928    10.045   .     S
B140     H910    10.045   .     S
B140     Be1507    10.135   .     S
B140     Be1390    10.135   .     S
B140     V1621    10.232   .     S
B141     H796    10.045   .     S
B141     H754    10.045   .     S
B141     Be1512    10.135   .     S
B141     Be1353    10.135   .     S
B141     V1626    10.232   .     S
B142     H850    10.045   .     S
B142     H790    10.045   .     S
B142     Be1496    10.135   .     S
B142     Be1352    10.135   .     S
B142     V1545    10.232   .     S
B143     H761    10.045   .     S
B143     H802    10.045   .     S
B143     Be1350    10.135   .     S
B143     Be1448    10.135   .     S
B143     V1631    10.232   .     S
B144     H982    10.045   .     S
B144     H994    10.045   .     S
B144     Be1420    10.135   .     S
B144     Be1391    10.135   .     S
B144     V1575    10.232   .     S
B145     H922    10.045   .     S
B145     H857    10.045   .     S
B145     Be1386    10.135   .     S
B145     Be1485    10.135   .     S
B145     V1550    10.232   .     S
B146     H904    10.045   .     S
B146     H934    10.045   .     S
B146     Be1385    10.135   .     S
B146     Be1419    10.135   .     S
B146     V1622    10.232   .     S
B147     H808    10.045   .     S
B147     H653    10.045   .     S
B147     Be1384    10.135   .     S
B147     Be1531    10.135   .     S
B147     V1546    10.232   .     S
B148     H1061    10.045   .     S
B148     H1031    10.045   .     S
B148     Be1513    10.135   .     S
B148     Be1498    10.135   .     S
B148     V1583    10.232   .     S
B149     H1000    10.045   .     S
B149     H814    10.045   .     S
B149     Be1441    10.135   .     S
B149     Be1449    10.135   .     S
B149     V1559    10.232   .     S
B150     H803    10.045   .     S
B150     H797    10.045   .     S
B150     Be1437    10.135   .     S
B150     Be1402    10.135   .     S
B150     V1557    10.232   .     S
B151     H929    10.045   .     S
B151     H935    10.045   .     S
B151     Be1395    10.135   .     S
B151     Be1436    10.135   .     S
B151     V1607    10.232   .     S
B152     H820    10.045   .     S
B152     H706    10.045   .     S
B152     Be1433    10.135   .     S
B152     Be1438    10.135   .     S
B152     V1556    10.232   .     S
B153     H586    10.045   .     S
B153     H605    10.045   .     S
B153     Be1382    10.135   .     S
B153     Be1416    10.135   .     S
B153     V1608    10.232   .     S
B154     H988    10.045   .     S
B154     H983    10.045   .     S
B154     Be1424    10.135   .     S
B154     Be1440    10.135   .     S
B154     V1552    10.232   .     S
B155     H1007    10.045   .     S
B155     H712    10.045   .     S
B155     Be1421    10.135   .     S
B155     Be1423    10.135   .     S
B155     V1551    10.232   .     S
B156     H640    10.045   .     S
B156     H689    10.045   .     S
B156     Be1457    10.135   .     S
B156     Be1479    10.135   .     S
B156     V1619    10.232   .     S
B157     H743    10.045   .     S
B157     H641    10.045   .     S
B157     Be1346    10.135   .     S
B157     Be1383    10.135   .     S
B157     V1613    10.232   .     S
B158     H899    10.045   .     S
B158     H851    10.045   .     S
B158     Be1492    10.135   .     S
B158     Be1461    10.135   .     S
B158     V1595    10.232   .     S
B159     H616    10.045   .     S
B159     H610    10.045   .     S
B159     Be1459    10.135   .     S
B159     Be1412    10.135   .     S
B159     V1584    10.232   .     S
B160     H694    10.045   .     S
B160     H688    10.045   .     S
B160     Be1497    10.135   .     S
B160     Be1401    10.135   .     S
B160     V1558    10.232   .     S
B161     H887    10.045   .     S
B161     H580    10.045   .     S
B161     Be1411    10.135   .     S
B161     Be1460    10.135   .     S
B161     V1616    10.232   .     S
B162     H611    10.045   .     S
B162     H1024    10.045   .     S
B162     Be1397    10.135   .     S
B162     Be1480    10.135   .     S
B162     V1540    10.232   .     S
B163     H581    10.045   .     S
B163     H785    10.045   .     S
B163     Be1380    10.135   .     S
B163     Be1345    10.135   .     S
B163     V1602    10.232   .     S
B164     H1025    10.045   .     S
B164     H1012    10.045   .     S
B164     Be1486    10.135   .     S
B164     Be1458    10.135   .     S
B164     V1571    10.232   .     S
B165     H617    10.045   .     S
B165     H839    10.045   .     S
B165     Be1379    10.135   .     S
B165     Be1344    10.135   .     S
B165     V1601    10.232   .     S
B166     H676    10.045   .     S
B166     H695    10.045   .     S
B166     Be1455    10.135   .     S
B166     Be1487    10.135   .     S
B166     V1566    10.232   .     S
B167     H647    10.045   .     S
B167     H778    10.045   .     S
B167     Be1351    10.135   .     S
B167     Be1371    10.135   .     S
B167     V1610    10.232   .     S
B168     H587    10.045   .     S
B168     H832    10.045   .     S
B168     Be1347    10.135   .     S
B168     Be1365    10.135   .     S
B168     V1609    10.232   .     S
B169     H1073    10.045   .     S
B169     H599    10.045   .     S
B169     Be1478    10.135   .     S
B169     Be1400    10.135   .     S
B169     V1548    10.232   .     S
B170     H880    10.045   .     S
B170     H1096    10.045   .     S
B170     Be1464    10.135   .     S
B170     Be1519    10.135   .     S
B170     V1567    10.232   .     S
B171     H701    10.045   .     S
B171     H593    10.045   .     S
B171     Be1462    10.135   .     S
B171     Be1510    10.135   .     S
B171     V1565    10.232   .     S
B172     H1067    10.045   .     S
B172     H1144    10.045   .     S
B172     Be1360    10.135   .     S
B172     Be1483    10.135   .     S
B172     V1618    10.232   .     S
B173     H760    10.045   .     S
B173     H947    10.045   .     S
B173     Be1445    10.135   .     S
B173     Be1453    10.135   .     S
B173     V1598    10.232   .     S
B174     H941    10.045   .     S
B174     H911    10.045   .     S
B174     Be1444    10.135   .     S
B174     Be1452    10.135   .     S
B174     V1597    10.232   .     S
B175     H628    10.045   .     S
B175     H1043    10.045   .     S
B175     Be1387    10.135   .     S
B175     Be1399    10.135   .     S
B175     V1614    10.232   .     S
B176     H623    10.045   .     S
B176     H736    10.045   .     S
B176     Be1355    10.135   .     S
B176     Be1366    10.135   .     S
B176     V1612    10.232   .     S
B177     H959    10.045   .     S
B177     H995    10.045   .     S
B177     Be1435    10.135   .     S
B177     Be1442    10.135   .     S
B177     V1593    10.232   .     S
B178     H905    10.045   .     S
B178     H965    10.045   .     S
B178     Be1434    10.135   .     S
B178     Be1451    10.135   .     S
B178     V1592    10.232   .     S
B179     H970    10.045   .     S
B179     H977    10.045   .     S
B179     Be1425    10.135   .     S
B179     Be1450    10.135   .     S
B179     V1581    10.232   .     S
B180     H604    10.045   .     S
B180     H868    10.045   .     S
B180     Be1388    10.135   .     S
B180     Be1396    10.135   .     S
B180     V1615    10.232   .     S
B181     H953    10.045   .     S
B181     H755    10.045   .     S
B181     Be1422    10.135   .     S
B181     Be1447    10.135   .     S
B181     V1577    10.232   .     S
B182     H671    10.045   .     S
B182     H664    10.045   .     S
B182     Be1477    10.135   .     S
B182     Be1370    10.135   .     S
B182     V1570    10.232   .     S
B183     H1114    10.045   .     S
B183     H658    10.045   .     S
B183     Be1503    10.135   .     S
B183     Be1369    10.135   .     S
B183     V1591    10.232   .     S
B184     H1127    10.045   .     S
B184     H1018    10.045   .     S
B184     Be1504    10.135   .     S
B184     Be1368    10.135   .     S
B184     V1594    10.232   .     S
B185     H682    10.045   .     S
B185     H1085    10.045   .     S
B185     Be1367    10.135   .     S
B185     Be1505    10.135   .     S
B185     V1599    10.232   .     S
B186     H1079    10.045   .     S
B186     H1048    10.045   .     S
B186     Be1502    10.135   .     S
B186     Be1364    10.135   .     S
B186     V1588    10.232   .     S
B187     H1151    10.045   .     S
B187     H862    10.045   .     S
B187     Be1500    10.135   .     S
B187     Be1363    10.135   .     S
B187     V1579    10.232   .     S
B188     H892    10.045   .     S
B188     H1133    10.045   .     S
B188     Be1362    10.135   .     S
B188     Be1501    10.135   .     S
B188     V1578    10.232   .     S
B189     H886    10.045   .     S
B189     H898    10.045   .     S
B189     Be1361    10.135   .     S
B189     Be1499    10.135   .     S
B189     V1563    10.232   .     S
B190     H940    10.045   .     S
B190     H964    10.045   .     S
B190     Be1389    10.135   .     S
B190     Be1356    10.135   .     S
B190     V1625    10.232   .     S
B191     H958    10.045   .     S
B191     H971    10.045   .     S
B191     Be1349    10.135   .     S
B191     Be1394    10.135   .     S
B191     V1624    10.232   .     S
C192     C193    9.99   .     S
C192     C194    9.99   .     S
C192     C202    9.994   .     S
C192     C199    9.994   .     S
C192     Er381    10.012   .     S
C193     C194    9.99   .     S
C193     C197    9.994   .     S
C193     C203    9.994   .     S
C193     Er383    10.012   .     S
C194     C196    9.994   .     S
C194     C200    9.994   .     S
C194     Er382    10.012   .     S
C195     C196    9.99   .     S
C195     C197    9.99   .     S
C195     C198    9.994   .     S
C195     C201    9.994   .     S
C195     Er324    10.012   .     S
C196     C197    9.99   .     S
C196     C200    9.994   .     S
C196     Er325    10.012   .     S
C197     C203    9.994   .     S
C197     Er326    10.012   .     S
C198     C199    9.99   .     S
C198     C200    9.99   .     S
C198     C201    9.994   .     S
C198     Er327    10.012   .     S
C199     C200    9.99   .     S
C199     C202    9.994   .     S
C199     Er329    10.012   .     S
C200     Er328    10.012   .     S
C201     C202    9.99   .     S
C201     C203    9.99   .     S
C201     Er315    10.012   .     S
C202     C203    9.99   .     S
C202     Er316    10.012   .     S
C203     Er317    10.012   .     S
C204     C205    9.99   .     S
C204     C206    9.99   .     S
C204     C212    9.994   .     S
C204     C207    9.994   .     S
C204     Er363    10.012   .     S
C205     C206    9.99   .     S
C205     C209    9.994   .     S
C205     C215    9.994   .     S
C205     Er364    10.012   .     S
C206     C211    9.994   .     S
C206     C213    9.994   .     S
C206     Er365    10.012   .     S
C207     C208    9.99   .     S
C207     C209    9.99   .     S
C207     C212    9.994   .     S
C207     Er337    10.012   .     S
C208     C209    9.99   .     S
C208     C214    9.994   .     S
C208     C210    9.994   .     S
C208     Er338    10.012   .     S
C209     C215    9.994   .     S
C209     Er336    10.012   .     S
C210     C212    9.99   .     S
C210     C211    9.99   .     S
C210     C214    9.994   .     S
C210     Er359    10.012   .     S
C211     C212    9.99   .     S
C211     C213    9.994   .     S
C211     Er358    10.012   .     S
C212     Er357    10.012   .     S
C213     C214    9.99   .     S
C213     C215    9.99   .     S
C213     Er340    10.012   .     S
C214     C215    9.99   .     S
C214     Er341    10.012   .     S
C215     Er339    10.012   .     S
C216     C218    9.99   .     S
C216     C217    9.99   .     S
C216     C222    9.994   .     S
C216     C219    9.994   .     S
C216     Er334    10.012   .     S
C217     C218    9.99   .     S
C217     C220    9.994   .     S
C217     C227    9.994   .     S
C217     Er333    10.012   .     S
C218     C223    9.994   .     S
C218     C225    9.994   .     S
C218     Er335    10.012   .     S
C219     C221    9.99   .     S
C219     C220    9.99   .     S
C219     C222    9.994   .     S
C219     Er361    10.012   .     S
C220     C221    9.99   .     S
C220     C227    9.994   .     S
C220     Er360    10.012   .     S
C221     C224    9.994   .     S
C221     C226    9.994   .     S
C221     Er362    10.012   .     S
C222     C224    9.99   .     S
C222     C223    9.99   .     S
C222     Er375    10.012   .     S
C223     C225    9.994   .     S
C223     C224    9.99   .     S
C223     Er377    10.012   .     S
C224     C226    9.994   .     S
C224     Er376    10.012   .     S
C225     C227    9.99   .     S
C225     C226    9.99   .     S
C225     Er367    10.012   .     S
C226     C227    9.99   .     S
C226     Er368    10.012   .     S
C227     Er366    10.012   .     S
C228     C230    9.99   .     S
C228     C229    9.99   .     S
C228     C236    9.994   .     S
C228     C239    9.994   .     S
C228     Er370    10.012   .     S
C229     C230    9.99   .     S
C229     C233    9.994   .     S
C229     C238    9.994   .     S
C229     Er369    10.012   .     S
C230     C232    9.994   .     S
C230     C234    9.994   .     S
C230     Er371    10.012   .     S
C231     C233    9.99   .     S
C231     C232    9.99   .     S
C231     C237    9.994   .     S
C231     C235    9.994   .     S
C231     Er345    10.012   .     S
C232     C233    9.99   .     S
C232     C234    9.994   .     S
C232     Er346    10.012   .     S
C233     C238    9.994   .     S
C233     Er347    10.012   .     S
C234     C236    9.99   .     S
C234     C235    9.99   .     S
C234     Er342    10.012   .     S
C235     C236    9.99   .     S
C235     C237    9.994   .     S
C235     Er343    10.012   .     S
C236     C239    9.994   .     S
C236     Er344    10.012   .     S
C237     C239    9.99   .     S
C237     C238    9.99   .     S
C237     Er348    10.012   .     S
C238     C239    9.99   .     S
C238     Er349    10.012   .     S
C239     Er350    10.012   .     S
C240     C242    9.99   .     S
C240     C241    9.99   .     S
C240     C251    9.994   .     S
C240     C246    9.994   .     S
C240     Er355    10.012   .     S
C241     C242    9.99   .     S
C241     C243    9.994   .     S
C241     C247    9.994   .     S
C241     Er354    10.012   .     S
C242     C249    9.994   .     S
C242     C245    9.994   .     S
C242     Er356    10.012   .     S
C243     C245    9.99   .     S
C243     C244    9.99   .     S
C243     C247    9.994   .     S
C243     Er372    10.012   .     S
C244     C245    9.99   .     S
C244     C248    9.994   .     S
C244     C250    9.994   .     S
C244     Er374    10.012   .     S
C245     C249    9.994   .     S
C245     Er373    10.012   .     S
C246     C248    9.99   .     S
C246     C247    9.99   .     S
C246     C251    9.994   .     S
C246     Er352    10.012   .     S
C247     C248    9.99   .     S
C247     Er351    10.012   .     S
C248     C250    9.994   .     S
C248     Er353    10.012   .     S
C249     C251    9.99   .     S
C249     C250    9.99   .     S
C249     Er380    10.012   .     S
C250     C251    9.99   .     S
C250     Er379    10.012   .     S
C251     Er378    10.012   .     S
C252     C254    9.99   .     S
C252     C253    9.99   .     S
C252     C260    9.994   .     S
C252     C261    9.994   .     S
C252     Er302    10.012   .     S
C253     C254    9.99   .     S
C253     C256    9.994   .     S
C253     C262    9.994   .     S
C253     Er300    10.012   .     S
C254     C259    9.994   .     S
C254     C257    9.994   .     S
C254     Er301    10.012   .     S
C255     C256    9.99   .     S
C255     C257    9.99   .     S
C255     C258    9.994   .     S
C255     C263    9.994   .     S
C255     Er303    10.012   .     S
C256     C257    9.99   .     S
C256     C262    9.994   .     S
C256     Er304    10.012   .     S
C257     C259    9.994   .     S
C257     Er305    10.012   .     S
C258     C259    9.99   .     S
C258     C260    9.99   .     S
C258     C263    9.994   .     S
C258     Er307    10.012   .     S
C259     C260    9.99   .     S
C259     Er308    10.012   .     S
C260     C261    9.994   .     S
C260     Er306    10.012   .     S
C261     C262    9.99   .     S
C261     C263    9.99   .     S
C261     Er331    10.012   .     S
C262     C263    9.99   .     S
C262     Er332    10.012   .     S
C263     Er330    10.012   .     S
C264     C266    9.99   .     S
C264     C265    9.99   .     S
C264     C272    9.994   .     S
C264     C273    9.994   .     S
C264     Er311    10.012   .     S
C265     C266    9.99   .     S
C265     C268    9.994   .     S
C265     C270    9.994   .     S
C265     Er310    10.012   .     S
C266     C274    9.994   .     S
C266     C269    9.994   .     S
C266     Er309    10.012   .     S
C267     C269    9.99   .     S
C267     C268    9.99   .     S
C267     C271    9.994   .     S
C267     C275    9.994   .     S
C267     Er323    10.012   .     S
C268     C269    9.99   .     S
C268     C270    9.994   .     S
C268     Er322    10.012   .     S
C269     C274    9.994   .     S
C269     Er321    10.012   .     S
C270     C272    9.99   .     S
C270     C271    9.99   .     S
C270     Er289    10.012   .     S
C271     C272    9.99   .     S
C271     C275    9.994   .     S
C271     Er290    10.012   .     S
C272     C273    9.994   .     S
C272     Er288    10.012   .     S
C273     C275    9.99   .     S
C273     C274    9.99   .     S
C273     Er291    10.012   .     S
C274     C275    9.99   .     S
C274     Er293    10.012   .     S
C275     Er292    10.012   .     S
C276     C283    9.994   .     S
C276     C279    9.994   .     S
C276     C278    9.99   .     S
C276     C277    9.99   .     S
C276     Er319    10.012   .     S
C277     C286    9.994   .     S
C277     C278    9.99   .     S
C277     C282    9.994   .     S
C277     Er320    10.012   .     S
C278     C280    9.994   .     S
C278     C285    9.994   .     S
C278     Er318    10.012   .     S
C279     C283    9.994   .     S
C279     C281    9.99   .     S
C279     C280    9.99   .     S
C279     Er312    10.012   .     S
C280     C285    9.994   .     S
C280     C281    9.99   .     S
C280     Er314    10.012   .     S
C281     C287    9.994   .     S
C281     C284    9.994   .     S
C281     Er313    10.012   .     S
C282     C286    9.994   .     S
C282     C283    9.99   .     S
C282     C284    9.99   .     S
C282     Er297    10.012   .     S
C283     C284    9.99   .     S
C283     Er299    10.012   .     S
C284     C287    9.994   .     S
C284     Er298    10.012   .     S
C285     C286    9.99   .     S
C285     C287    9.99   .     S
C285     Er296    10.012   .     S
C286     C287    9.99   .     S
C286     Er295    10.012   .     S
C287     Er294    10.012   .     S
Er288     Er289    9.992   .     S
Er288     Er290    9.992   .     S
Er288     Ti545    10.001   1_554     S
Er288     Ti544    10.001   .     S
Er289     Er290    9.992   .     S
Er289     Ti540    10.001   .     S
Er289     Ti541    10.001   .     S
Er290     Ti542    10.001   .     S
Er290     Ti543    10.001   1_554     S
Er291     Er293    9.992   .     S
Er291     Er292    9.992   .     S
Er291     Ti560    10.001   1_554     S
Er291     Ti561    10.001   .     S
Er292     Er293    9.992   .     S
Er292     Ti559    10.001   .     S
Er292     Ti558    10.001   1_554     S
Er293     Ti562    10.001   .     S
Er293     Ti563    10.001   .     S
Er294     Er296    9.992   .     S
Er294     Er295    9.992   .     S
Er294     Ti538    10.001   .     S
Er294     Ti539    10.001   1_455     S
Er295     Er296    9.992   .     S
Er295     Ti537    10.001   .     S
Er295     Ti536    10.001   1_455     S
Er296     Ti535    10.001   .     S
Er296     Ti534    10.001   .     S
Er297     Er299    9.992   .     S
Er297     Er298    9.992   .     S
Er297     Ti522    10.001   1_455     S
Er297     Ti523    10.001   .     S
Er298     Er299    9.992   .     S
Er298     Ti524    10.001   1_455     S
Er298     Ti525    10.001   .     S
Er299     Ti526    10.001   .     S
Er299     Ti527    10.001   .     S
Er300     Er302    9.992   .     S
Er300     Er301    9.992   .     S
Er300     Ti529    10.001   .     S
Er300     Ti528    10.001   1_545     S
Er301     Er302    9.992   .     S
Er301     Ti530    10.001   1_545     S
Er301     Ti531    10.001   .     S
Er302     Ti532    10.001   .     S
Er302     Ti533    10.001   .     S
Er303     Er304    9.992   .     S
Er303     Er305    9.992   .     S
Er303     Ti515    10.001   .     S
Er303     Ti514    10.001   .     S
Er304     Er305    9.992   .     S
Er304     Ti512    10.001   1_545     S
Er304     Ti513    10.001   .     S
Er305     Ti511    10.001   .     S
Er305     Ti510    10.001   1_545     S
Er306     Er307    9.992   .     S
Er306     Er308    9.992   .     S
Er306     Ti506    10.001   .     S
Er306     Ti507    10.001   .     S
Er307     Er308    9.992   .     S
Er307     Ti505    10.001   .     S
Er307     Ti504    10.001   .     S
Er308     Ti508    10.001   .     S
Er308     Ti509    10.001   .     S
Er309     Er310    9.992   .     S
Er309     Er311    9.992   .     S
Er309     Ti574    10.001   .     S
Er309     Ti575    10.001   .     S
Er310     Er311    9.992   .     S
Er310     Ti573    10.001   .     S
Er310     Ti572    10.001   .     S
Er311     Ti570    10.001   .     S
Er311     Ti571    10.001   .     S
Er312     Er313    9.992   .     S
Er312     Er314    9.992   .     S
Er312     Ti557    10.001   .     S
Er312     Ti556    10.001   .     S
Er313     Er314    9.992   .     S
Er313     Ti555    10.001   .     S
Er313     Ti554    10.001   .     S
Er314     Ti553    10.001   .     S
Er314     Ti552    10.001   .     S
Er315     Er316    9.992   .     S
Er315     Er317    9.992   .     S
Er315     Ti440    10.001   1_556     S
Er315     Ti441    10.001   1_565     S
Er316     Er317    9.992   .     S
Er316     Ti438    10.001   .     S
Er316     Ti439    10.001   1_565     S
Er317     Ti442    10.001   .     S
Er317     Ti443    10.001   1_556     S
Er318     Er319    9.992   .     S
Er318     Er320    9.992   .     S
Er318     Ti566    10.001   .     S
Er318     Ti567    10.001   .     S
Er319     Er320    9.992   .     S
Er319     Ti568    10.001   .     S
Er319     Ti569    10.001   .     S
Er320     Ti564    10.001   .     S
Er320     Ti565    10.001   .     S
Er321     Er322    9.992   .     S
Er321     Er323    9.992   .     S
Er321     Ti516    10.001   .     S
Er321     Ti517    10.001   .     S
Er322     Er323    9.992   .     S
Er322     Ti518    10.001   .     S
Er322     Ti519    10.001   .     S
Er323     Ti521    10.001   .     S
Er323     Ti520    10.001   .     S
Er324     Er325    9.992   .     S
Er324     Er326    9.992   .     S
Er324     Ti435    10.001   1_556     S
Er324     Ti434    10.001   1_655     S
Er325     Er326    9.992   .     S
Er325     Ti436    10.001   .     S
Er325     Ti437    10.001   1_655     S
Er326     Ti432    10.001   .     S
Er326     Ti433    10.001   1_556     S
Er327     Er329    9.992   .     S
Er327     Er328    9.992   .     S
Er327     Ti423    10.001   1_655     S
Er327     Ti422    10.001   1_565     S
Er328     Er329    9.992   .     S
Er328     Ti420    10.001   .     S
Er328     Ti421    10.001   1_655     S
Er329     Ti425    10.001   1_565     S
Er329     Ti424    10.001   .     S
Er330     Er332    9.992   .     S
Er330     Er331    9.992   .     S
Er330     Ti550    10.001   .     S
Er330     Ti551    10.001   .     S
Er331     Er332    9.992   .     S
Er331     Ti546    10.001   .     S
Er331     Ti547    10.001   .     S
Er332     Ti549    10.001   .     S
Er332     Ti548    10.001   .     S
Er333     Er334    9.992   .     S
Er333     Er335    9.992   .     S
Er333     Ti458    10.001   .     S
Er333     Ti459    10.001   1_556     S
Er334     Er335    9.992   .     S
Er334     Ti461    10.001   1_556     S
Er334     Ti460    10.001   .     S
Er335     Ti456    10.001   .     S
Er335     Ti457    10.001   .     S
Er336     Er338    9.992   .     S
Er336     Er337    9.992   .     S
Er336     Ti494    10.001   .     S
Er336     Ti495    10.001   1_455     S
Er337     Er338    9.992   .     S
Er337     Ti492    10.001   .     S
Er337     Ti493    10.001   1_545     S
Er338     Ti497    10.001   1_545     S
Er338     Ti496    10.001   1_455     S
Er339     Er341    9.992   .     S
Er339     Er340    9.992   .     S
Er339     Ti480    10.001   .     S
Er339     Ti481    10.001   1_455     S
Er340     Er341    9.992   .     S
Er340     Ti485    10.001   1_554     S
Er340     Ti484    10.001   .     S
Er341     Ti483    10.001   1_455     S
Er341     Ti482    10.001   1_554     S
Er342     Er343    9.992   .     S
Er342     Er344    9.992   .     S
Er342     Ti416    10.001   .     S
Er342     Ti417    10.001   1_565     S
Er343     Er344    9.992   .     S
Er343     Ti419    10.001   1_565     S
Er343     Ti418    10.001   .     S
Er344     Ti415    10.001   .     S
Er344     Ti414    10.001   .     S
Er345     Er346    9.992   .     S
Er345     Er347    9.992   .     S
Er345     Ti465    10.001   1_565     S
Er345     Ti464    10.001   .     S
Er346     Er347    9.992   .     S
Er346     Ti466    10.001   .     S
Er346     Ti467    10.001   1_565     S
Er347     Ti463    10.001   .     S
Er347     Ti462    10.001   .     S
Er348     Er350    9.992   .     S
Er348     Er349    9.992   .     S
Er348     Ti428    10.001   .     S
Er348     Ti429    10.001   .     S
Er349     Er350    9.992   .     S
Er349     Ti430    10.001   .     S
Er349     Ti431    10.001   .     S
Er350     Ti427    10.001   .     S
Er350     Ti426    10.001   .     S
Er351     Er353    9.992   .     S
Er351     Er352    9.992   .     S
Er351     Ti471    10.001   1_655     S
Er351     Ti470    10.001   .     S
Er352     Er353    9.992   .     S
Er352     Ti472    10.001   .     S
Er352     Ti473    10.001   1_655     S
Er353     Ti468    10.001   .     S
Er353     Ti469    10.001   .     S
Er354     Er356    9.992   .     S
Er354     Er355    9.992   .     S
Er354     Ti476    10.001   .     S
Er354     Ti477    10.001   1_655     S
Er355     Er356    9.992   .     S
Er355     Ti479    10.001   1_655     S
Er355     Ti478    10.001   .     S
Er356     Ti474    10.001   .     S
Er356     Ti475    10.001   .     S
Er357     Er359    9.992   .     S
Er357     Er358    9.992   .     S
Er357     Ti491    10.001   .     S
Er357     Ti490    10.001   1_545     S
Er358     Er359    9.992   .     S
Er358     Ti488    10.001   .     S
Er358     Ti489    10.001   1_554     S
Er359     Ti486    10.001   1_554     S
Er359     Ti487    10.001   1_545     S
Er360     Er362    9.992   .     S
Er360     Er361    9.992   .     S
Er360     Ti451    10.001   1_556     S
Er360     Ti450    10.001   .     S
Er361     Er362    9.992   .     S
Er361     Ti454    10.001   .     S
Er361     Ti455    10.001   1_556     S
Er362     Ti453    10.001   .     S
Er362     Ti452    10.001   .     S
Er363     Er365    9.992   .     S
Er363     Er364    9.992   .     S
Er363     Ti499    10.001   .     S
Er363     Ti498    10.001   .     S
Er364     Er365    9.992   .     S
Er364     Ti500    10.001   .     S
Er364     Ti501    10.001   .     S
Er365     Ti503    10.001   .     S
Er365     Ti502    10.001   .     S
Er366     Er368    9.992   .     S
Er366     Er367    9.992   .     S
Er366     Ti413    10.001   .     S
Er366     Ti412    10.001   .     S
Er367     Er368    9.992   .     S
Er367     Ti408    10.001   .     S
Er367     Ti409    10.001   .     S
Er368     Ti411    10.001   .     S
Er368     Ti410    10.001   .     S
Er369     Er370    9.992   .     S
Er369     Er371    9.992   .     S
Er369     Ti398    10.001   .     S
Er369     Ti399    10.001   .     S
Er370     Er371    9.992   .     S
Er370     Ti396    10.001   .     S
Er370     Ti397    10.001   .     S
Er371     Ti401    10.001   .     S
Er371     Ti400    10.001   .     S
Er372     Er374    9.992   .     S
Er372     Er373    9.992   .     S
Er372     Ti446    10.001   .     S
Er372     Ti447    10.001   .     S
Er373     Er374    9.992   .     S
Er373     Ti445    10.001   .     S
Er373     Ti444    10.001   .     S
Er374     Ti448    10.001   .     S
Er374     Ti449    10.001   .     S
Er375     Er376    9.992   .     S
Er375     Er377    9.992   .     S
Er375     Ti394    10.001   .     S
Er375     Ti395    10.001   .     S
Er376     Er377    9.992   .     S
Er376     Ti393    10.001   .     S
Er376     Ti392    10.001   .     S
Er377     Ti391    10.001   .     S
Er377     Ti390    10.001   .     S
Er378     Er379    9.992   .     S
Er378     Er380    9.992   .     S
Er378     Ti407    10.001   .     S
Er378     Ti406    10.001   .     S
Er379     Er380    9.992   .     S
Er379     Ti403    10.001   .     S
Er379     Ti402    10.001   .     S
Er380     Ti404    10.001   .     S
Er380     Ti405    10.001   .     S
Er381     Er383    9.992   .     S
Er381     Er382    9.992   .     S
Er381     Ti384    10.001   .     S
Er381     Ti385    10.001   .     S
Er382     Er383    9.992   .     S
Er382     Ti387    10.001   .     S
Er382     Ti386    10.001   .     S
Er383     Ti389    10.001   .     S
Er383     Ti388    10.001   .     S
Ti384     V1625    10.026   .     S
Ti384     Ti387    9.902   .     S
Ti384     H964    9.905   .     S
Ti384     Ti385    9.868   .     S
Ti385     V1624    10.026   .     S
Ti385     Ti389    9.902   .     S
Ti385     H971    9.905   .     S
Ti386     V1620    10.026   .     S
Ti386     Ti388    9.902   .     S
Ti386     H946    9.905   .     S
Ti386     Ti387    9.868   .     S
Ti387     V1625    10.026   .     S
Ti387     H940    9.905   .     S
Ti388     V1620    10.026   .     S
Ti388     H952    9.905   .     S
Ti388     Ti389    9.868   .     S
Ti389     V1624    10.026   .     S
Ti389     H958    9.905   .     S
Ti390     V1629    10.026   .     S
Ti390     Ti392    9.902   .     S
Ti390     H707    9.905   .     S
Ti390     Ti391    9.868   .     S
Ti391     V1626    10.026   .     S
Ti391     Ti394    9.902   .     S
Ti391     H796    9.905   .     S
Ti392     V1629    10.026   .     S
Ti392     H713    9.905   .     S
Ti392     Ti393    9.868   .     S
Ti393     V1575    10.026   .     S
Ti393     Ti395    9.902   .     S
Ti393     H982    9.905   .     S
Ti394     V1626    10.026   .     S
Ti394     H754    9.905   .     S
Ti394     Ti395    9.868   .     S
Ti395     V1575    10.026   .     S
Ti395     H994    9.905   .     S
Ti396     V1627    10.026   .     S
Ti396     Ti398    9.902   .     S
Ti396     H1006    9.905   .     S
Ti396     Ti397    9.868   .     S
Ti397     V1628    10.026   .     S
Ti397     Ti401    9.902   .     S
Ti397     H989    9.905   .     S
Ti398     V1627    10.026   .     S
Ti398     H1001    9.905   .     S
Ti398     Ti399    9.868   .     S
Ti399     V1622    10.026   .     S
Ti399     Ti400    9.902   .     S
Ti399     H934    9.905   .     S
Ti400     V1622    10.026   .     S
Ti400     H904    9.905   .     S
Ti400     Ti401    9.868   .     S
Ti401     V1628    10.026   .     S
Ti401     H976    9.905   .     S
Ti402     V1623    10.026   .     S
Ti402     Ti404    9.902   .     S
Ti402     H821    9.905   .     S
Ti402     Ti403    9.868   .     S
Ti403     V1631    10.026   .     S
Ti403     Ti406    9.902   .     S
Ti403     H802    9.905   .     S
Ti404     V1623    10.026   .     S
Ti404     H815    9.905   .     S
Ti404     Ti405    9.868   .     S
Ti405     V1621    10.026   .     S
Ti405     Ti407    9.902   .     S
Ti405     H928    9.905   .     S
Ti406     V1631    10.026   .     S
Ti406     H761    9.905   .     S
Ti406     Ti407    9.868   .     S
Ti407     V1621    10.026   .     S
Ti407     H910    9.905   .     S
Ti408     V1558    10.026   .     S
Ti408     Ti413    9.902   .     S
Ti408     H694    9.905   .     S
Ti408     Ti409    9.868   .     S
Ti409     V1582    10.026   .     S
Ti409     Ti410    9.902   .     S
Ti409     H700    9.905   .     S
Ti410     V1582    10.026   .     S
Ti410     H634    9.905   .     S
Ti410     Ti411    9.868   .     S
Ti411     V1570    10.026   .     S
Ti411     Ti412    9.902   .     S
Ti411     H671    9.905   .     S
Ti412     V1570    10.026   .     S
Ti412     H664    9.905   .     S
Ti412     Ti413    9.868   .     S
Ti413     V1558    10.026   .     S
Ti413     H688    9.905   .     S
Ti414     V1573    10.026   .     S
Ti414     Ti416    9.902   .     S
Ti414     H748    9.905   .     S
Ti414     Ti415    9.868   .     S
Ti415     V1594    10.026   .     S
Ti415     Ti418    9.902   .     S
Ti415     H1018    9.905   .     S
Ti416     V1573    10.026   .     S
Ti416     H677    9.905   .     S
Ti416     Ti417    9.868   1_565     S
Ti417     V1603    10.026   .     S
Ti417     Er342    10.001   1_545     S
Ti417     Ti419    9.902   .     S
Ti417     H592    9.905   .     S
Ti417     Ti416    9.868   1_545     S
Ti418     V1594    10.026   .     S
Ti418     H1127    9.905   .     S
Ti418     Ti419    9.868   1_565     S
Ti419     V1603    10.026   .     S
Ti419     Er343    10.001   1_545     S
Ti419     H1121    9.905   .     S
Ti419     Ti418    9.868   1_545     S
Ti420     V1547    10.026   .     S
Ti420     Ti424    9.902   .     S
Ti420     H731    9.905   .     S
Ti420     Ti421    9.868   1_655     S
Ti421     V1613    10.026   .     S
Ti421     Er328    10.001   1_455     S
Ti421     Ti423    9.902   .     S
Ti421     H743    9.905   .     S
Ti421     Ti420    9.868   1_455     S
Ti422     V1610    10.026   .     S
Ti422     Er327    10.001   1_545     S
Ti422     Ti425    9.902   .     S
Ti422     H647    9.905   .     S
Ti422     Ti423    9.868   1_645     S
Ti423     V1613    10.026   .     S
Ti423     Er327    10.001   1_455     S
Ti423     H641    9.905   .     S
Ti423     Ti422    9.868   1_465     S
Ti424     V1547    10.026   .     S
Ti424     H767    9.905   .     S
Ti424     Ti425    9.868   1_565     S
Ti425     V1610    10.026   .     S
Ti425     Er329    10.001   1_545     S
Ti425     H778    9.905   .     S
Ti425     Ti424    9.868   1_545     S
Ti426     V1540    10.026   .     S
Ti426     Ti429    9.902   .     S
Ti426     H1024    9.905   .     S
Ti426     Ti427    9.868   .     S
Ti427     V1541    10.026   .     S
Ti427     Ti430    9.902   .     S
Ti427     H1030    9.905   .     S
Ti428     V1614    10.026   .     S
Ti428     Ti431    9.902   .     S
Ti428     H628    9.905   .     S
Ti428     Ti429    9.868   .     S
Ti429     V1540    10.026   .     S
Ti429     H611    9.905   .     S
Ti430     V1541    10.026   .     S
Ti430     H1036    9.905   .     S
Ti430     Ti431    9.868   .     S
Ti431     V1614    10.026   .     S
Ti431     H1043    9.905   .     S
Ti432     V1543    10.026   .     S
Ti432     Ti436    9.902   .     S
Ti432     H845    9.905   .     S
Ti432     Ti433    9.868   1_556     S
Ti433     V1601    10.026   .     S
Ti433     Er326    10.001   1_554     S
Ti433     Ti435    9.902   .     S
Ti433     H839    9.905   .     S
Ti433     Ti432    9.868   1_554     S
Ti434     V1612    10.026   .     S
Ti434     Er324    10.001   1_455     S
Ti434     Ti437    9.902   .     S
Ti434     H623    9.905   .     S
Ti434     Ti435    9.868   1_456     S
Ti435     V1601    10.026   .     S
Ti435     Er324    10.001   1_554     S
Ti435     H617    9.905   .     S
Ti435     Ti434    9.868   1_654     S
Ti436     V1543    10.026   .     S
Ti436     H725    9.905   .     S
Ti436     Ti437    9.868   1_655     S
Ti437     V1612    10.026   .     S
Ti437     Er325    10.001   1_455     S
Ti437     H736    9.905   .     S
Ti437     Ti436    9.868   1_455     S
Ti438     V1544    10.026   .     S
Ti438     Ti442    9.902   .     S
Ti438     H773    9.905   .     S
Ti438     Ti439    9.868   1_565     S
Ti439     V1602    10.026   .     S
Ti439     Er316    10.001   1_545     S
Ti439     Ti441    9.902   .     S
Ti439     H785    9.905   .     S
Ti439     Ti438    9.868   1_545     S
Ti440     V1609    10.026   .     S
Ti440     Er315    10.001   1_554     S
Ti440     Ti443    9.902   .     S
Ti440     H587    9.905   .     S
Ti440     Ti441    9.868   1_564     S
Ti441     V1602    10.026   .     S
Ti441     Er315    10.001   1_545     S
Ti441     H581    9.905   .     S
Ti441     Ti440    9.868   1_546     S
Ti442     V1544    10.026   .     S
Ti442     H826    9.905   .     S
Ti442     Ti443    9.868   1_556     S
Ti443     V1609    10.026   .     S
Ti443     Er317    10.001   1_554     S
Ti443     H832    9.905   .     S
Ti443     Ti442    9.868   1_554     S
Ti444     V1563    10.026   .     S
Ti444     Ti446    9.902   .     S
Ti444     H898    9.905   .     S
Ti444     Ti445    9.868   .     S
Ti445     V1555    10.026   .     S
Ti445     Ti448    9.902   .     S
Ti445     H881    9.905   .     S
Ti446     V1563    10.026   .     S
Ti446     H886    9.905   .     S
Ti446     Ti447    9.868   .     S
Ti447     V1615    10.026   .     S
Ti447     Ti449    9.902   .     S
Ti447     H604    9.905   .     S
Ti448     V1555    10.026   .     S
Ti448     H874    9.905   .     S
Ti448     Ti449    9.868   .     S
Ti449     V1615    10.026   .     S
Ti449     H868    9.905   .     S
Ti450     V1591    10.026   .     S
Ti450     Ti452    9.902   .     S
Ti450     H1114    9.905   .     S
Ti450     Ti451    9.868   1_556     S
Ti451     V1617    10.026   .     S
Ti451     Er360    10.001   1_554     S
Ti451     Ti455    9.902   .     S
Ti451     H1108    9.905   .     S
Ti451     Ti450    9.868   1_554     S
Ti452     V1591    10.026   .     S
Ti452     H658    9.905   .     S
Ti452     Ti453    9.868   .     S
Ti453     V1536    10.026   .     S
Ti453     Ti454    9.902   .     S
Ti453     H718    9.905   .     S
Ti454     V1536    10.026   .     S
Ti454     H1055    9.905   .     S
Ti454     Ti455    9.868   1_556     S
Ti455     V1617    10.026   .     S
Ti455     Er361    10.001   1_554     S
Ti455     H1103    9.905   .     S
Ti455     Ti454    9.868   1_554     S
Ti456     V1545    10.026   .     S
Ti456     Ti460    9.902   .     S
Ti456     H790    9.905   .     S
Ti456     Ti457    9.868   .     S
Ti457     V1599    10.026   .     S
Ti457     Ti458    9.902   .     S
Ti457     H682    9.905   .     S
Ti458     V1599    10.026   .     S
Ti458     H1085    9.905   .     S
Ti458     Ti459    9.868   1_556     S
Ti459     V1611    10.026   .     S
Ti459     Er333    10.001   1_554     S
Ti459     Ti461    9.902   .     S
Ti459     H1091    9.905   .     S
Ti459     Ti458    9.868   1_554     S
Ti460     V1545    10.026   .     S
Ti460     H850    9.905   .     S
Ti460     Ti461    9.868   1_556     S
Ti461     V1611    10.026   .     S
Ti461     Er334    10.001   1_554     S
Ti461     H1097    9.905   .     S
Ti461     Ti460    9.868   1_554     S
Ti462     V1588    10.026   .     S
Ti462     Ti464    9.902   .     S
Ti462     H1048    9.905   .     S
Ti462     Ti463    9.868   .     S
Ti463     V1550    10.026   .     S
Ti463     Ti466    9.902   .     S
Ti463     H922    9.905   .     S
Ti464     V1588    10.026   .     S
Ti464     H1079    9.905   .     S
Ti464     Ti465    9.868   1_565     S
Ti465     V1548    10.026   .     S
Ti465     Er345    10.001   1_545     S
Ti465     Ti467    9.902   .     S
Ti465     H1073    9.905   .     S
Ti465     Ti464    9.868   1_545     S
Ti466     V1550    10.026   .     S
Ti466     H857    9.905   .     S
Ti466     Ti467    9.868   1_565     S
Ti467     V1548    10.026   .     S
Ti467     Er346    10.001   1_545     S
Ti467     H599    9.905   .     S
Ti467     Ti466    9.868   1_545     S
Ti468     V1579    10.026   .     S
Ti468     Ti470    9.902   .     S
Ti468     H862    9.905   .     S
Ti468     Ti469    9.868   .     S
Ti469     V1546    10.026   .     S
Ti469     Ti472    9.902   .     S
Ti469     H808    9.905   .     S
Ti470     V1579    10.026   .     S
Ti470     H1151    9.905   .     S
Ti470     Ti471    9.868   1_655     S
Ti471     V1618    10.026   .     S
Ti471     Er351    10.001   1_455     S
Ti471     Ti473    9.902   .     S
Ti471     H1144    9.905   .     S
Ti471     Ti470    9.868   1_455     S
Ti472     V1546    10.026   .     S
Ti472     H653    9.905   .     S
Ti472     Ti473    9.868   1_655     S
Ti473     V1618    10.026   .     S
Ti473     Er352    10.001   1_455     S
Ti473     H1067    9.905   .     S
Ti473     Ti472    9.868   1_455     S
Ti474     V1542    10.026   .     S
Ti474     Ti478    9.902   .     S
Ti474     H916    9.905   .     S
Ti474     Ti475    9.868   .     S
Ti475     V1578    10.026   .     S
Ti475     Ti476    9.902   .     S
Ti475     H892    9.905   .     S
Ti476     V1578    10.026   .     S
Ti476     H1133    9.905   .     S
Ti476     Ti477    9.868   1_655     S
Ti477     V1630    10.026   .     S
Ti477     Er354    10.001   1_455     S
Ti477     Ti479    9.902   .     S
Ti477     H1138    9.905   .     S
Ti477     Ti476    9.868   1_455     S
Ti478     V1542    10.026   .     S
Ti478     H1013    9.905   .     S
Ti478     Ti479    9.868   1_655     S
Ti479     V1630    10.026   .     S
Ti479     Er355    10.001   1_455     S
Ti479     H1060    9.905   .     S
Ti479     Ti478    9.868   1_455     S
Ti480     V1606    10.026   .     S
Ti480     Ti484    9.902   .     S
Ti480     H1132    9.905   .     S
Ti480     Ti481    9.868   1_455     S
Ti481     V1616    10.026   .     S
Ti481     Er339    10.001   1_655     S
Ti481     Ti483    9.902   .     S
Ti481     H887    9.905   .     S
Ti481     Ti480    9.868   1_655     S
Ti482     V1562    10.026   .     S
Ti482     Er341    10.001   1_556     S
Ti482     Ti485    9.902   .     S
Ti482     H646    9.905   .     S
Ti482     Ti483    9.868   1_456     S
Ti483     V1616    10.026   .     S
Ti483     Er341    10.001   1_655     S
Ti483     H580    9.905   .     S
Ti483     Ti482    9.868   1_654     S
Ti484     V1606    10.026   .     S
Ti484     H1115    9.905   .     S
Ti484     Ti485    9.868   1_554     S
Ti485     V1562    10.026   .     S
Ti485     Er340    10.001   1_556     S
Ti485     H665    9.905   .     S
Ti485     Ti484    9.868   1_556     S
Ti486     V1619    10.026   .     S
Ti486     Er359    10.001   1_556     S
Ti486     Ti489    9.902   .     S
Ti486     H640    9.905   .     S
Ti486     Ti487    9.868   1_546     S
Ti487     V1569    10.026   .     S
Ti487     Er359    10.001   1_565     S
Ti487     Ti490    9.902   .     S
Ti487     H622    9.905   .     S
Ti487     Ti486    9.868   1_564     S
Ti488     V1605    10.026   .     S
Ti488     Ti491    9.902   .     S
Ti488     H1084    9.905   .     S
Ti488     Ti489    9.868   1_554     S
Ti489     V1619    10.026   .     S
Ti489     Er358    10.001   1_556     S
Ti489     H689    9.905   .     S
Ti489     Ti488    9.868   1_556     S
Ti490     V1569    10.026   .     S
Ti490     Er357    10.001   1_565     S
Ti490     H629    9.905   .     S
Ti490     Ti491    9.868   1_565     S
Ti491     V1605    10.026   .     S
Ti491     H1078    9.905   .     S
Ti491     Ti490    9.868   1_545     S
Ti492     V1604    10.026   .     S
Ti492     Ti494    9.902   .     S
Ti492     H1126    9.905   .     S
Ti492     Ti493    9.868   1_545     S
Ti493     V1584    10.026   .     S
Ti493     Er337    10.001   1_565     S
Ti493     Ti497    9.902   .     S
Ti493     H610    9.905   .     S
Ti493     Ti492    9.868   1_565     S
Ti494     V1604    10.026   .     S
Ti494     H1150    9.905   .     S
Ti494     Ti495    9.868   1_455     S
Ti495     V1608    10.026   .     S
Ti495     Er336    10.001   1_655     S
Ti495     Ti496    9.902   .     S
Ti495     H605    9.905   .     S
Ti495     Ti494    9.868   1_655     S
Ti496     V1608    10.026   .     S
Ti496     Er338    10.001   1_655     S
Ti496     H586    9.905   .     S
Ti496     Ti497    9.868   1_645     S
Ti497     V1584    10.026   .     S
Ti497     Er338    10.001   1_565     S
Ti497     H616    9.905   .     S
Ti497     Ti496    9.868   1_465     S
Ti498     V1549    10.026   .     S
Ti498     Ti503    9.902   .     S
Ti498     H1072    9.905   .     S
Ti498     Ti499    9.868   .     S
Ti499     V1554    10.026   .     S
Ti499     Ti500    9.902   .     S
Ti499     H1120    9.905   .     S
Ti500     V1554    10.026   .     S
Ti500     H1145    9.905   .     S
Ti500     Ti501    9.868   .     S
Ti501     V1537    10.026   .     S
Ti501     Ti502    9.902   .     S
Ti501     H1139    9.905   .     S
Ti502     V1537    10.026   .     S
Ti502     H1109    9.905   .     S
Ti502     Ti503    9.868   .     S
Ti503     V1549    10.026   .     S
Ti503     H1090    9.905   .     S
Ti504     V1556    10.026   .     S
Ti504     Ti506    9.902   .     S
Ti504     H820    9.905   .     S
Ti504     Ti505    9.868   .     S
Ti505     V1587    10.026   .     S
Ti505     Ti509    9.902   .     S
Ti505     H875    9.905   .     S
Ti506     V1556    10.026   .     S
Ti506     H706    9.905   .     S
Ti506     Ti507    9.868   .     S
Ti507     V1565    10.026   .     S
Ti507     Ti508    9.902   .     S
Ti507     H701    9.905   .     S
Ti508     V1565    10.026   .     S
Ti508     H593    9.905   .     S
Ti508     Ti509    9.868   .     S
Ti509     V1587    10.026   .     S
Ti509     H598    9.905   .     S
Ti510     V1592    10.026   .     S
Ti510     Er305    10.001   1_565     S
Ti510     Ti512    9.902   .     S
Ti510     H905    9.905   .     S
Ti510     Ti511    9.868   1_565     S
Ti511     V1564    10.026   .     S
Ti511     Ti514    9.902   .     S
Ti511     H856    9.905   .     S
Ti511     Ti510    9.868   1_545     S
Ti512     V1592    10.026   .     S
Ti512     Er304    10.001   1_565     S
Ti512     H965    9.905   .     S
Ti512     Ti513    9.868   1_565     S
Ti513     V1589    10.026   .     S
Ti513     Ti515    9.902   .     S
Ti513     H766    9.905   .     S
Ti513     Ti512    9.868   1_545     S
Ti514     V1564    10.026   .     S
Ti514     H869    9.905   .     S
Ti514     Ti515    9.868   .     S
Ti515     V1589    10.026   .     S
Ti515     H863    9.905   .     S
Ti516     V1559    10.026   .     S
Ti516     Ti519    9.902   .     S
Ti516     H814    9.905   .     S
Ti516     Ti517    9.868   .     S
Ti517     V1567    10.026   .     S
Ti517     Ti521    9.902   .     S
Ti517     H880    9.905   .     S
Ti518     V1553    10.026   .     S
Ti518     Ti520    9.902   .     S
Ti518     H1037    9.905   .     S
Ti518     Ti519    9.868   .     S
Ti519     V1559    10.026   .     S
Ti519     H1000    9.905   .     S
Ti520     V1553    10.026   .     S
Ti520     H1102    9.905   .     S
Ti520     Ti521    9.868   .     S
Ti521     V1567    10.026   .     S
Ti521     H1096    9.905   .     S
Ti522     V1597    10.026   .     S
Ti522     Er297    10.001   1_655     S
Ti522     Ti524    9.902   .     S
Ti522     H941    9.905   .     S
Ti522     Ti523    9.868   1_655     S
Ti523     V1580    10.026   .     S
Ti523     Ti527    9.902   .     S
Ti523     H730    9.905   .     S
Ti523     Ti522    9.868   1_455     S
Ti524     V1597    10.026   .     S
Ti524     Er298    10.001   1_655     S
Ti524     H911    9.905   .     S
Ti524     Ti525    9.868   1_655     S
Ti525     V1571    10.026   .     S
Ti525     Ti526    9.902   .     S
Ti525     H1012    9.905   .     S
Ti525     Ti524    9.868   1_455     S
Ti526     V1571    10.026   .     S
Ti526     H1025    9.905   .     S
Ti526     Ti527    9.868   .     S
Ti527     V1580    10.026   .     S
Ti527     H1019    9.905   .     S
Ti528     V1581    10.026   .     S
Ti528     Er300    10.001   1_565     S
Ti528     Ti530    9.902   .     S
Ti528     H970    9.905   .     S
Ti528     Ti529    9.868   1_565     S
Ti529     V1586    10.026   .     S
Ti529     Ti533    9.902   .     S
Ti529     H772    9.905   .     S
Ti529     Ti528    9.868   1_545     S
Ti530     V1581    10.026   .     S
Ti530     Er301    10.001   1_565     S
Ti530     H977    9.905   .     S
Ti530     Ti531    9.868   1_565     S
Ti531     V1566    10.026   .     S
Ti531     Ti532    9.902   .     S
Ti531     H676    9.905   .     S
Ti531     Ti530    9.868   1_545     S
Ti532     V1566    10.026   .     S
Ti532     H695    9.905   .     S
Ti532     Ti533    9.868   .     S
Ti533     V1586    10.026   .     S
Ti533     H683    9.905   .     S
Ti534     V1574    10.026   .     S
Ti534     Ti538    9.902   .     S
Ti534     H670    9.905   .     S
Ti534     Ti535    9.868   .     S
Ti535     V1576    10.026   .     S
Ti535     Ti537    9.902   .     S
Ti535     H659    9.905   .     S
Ti536     V1598    10.026   .     S
Ti536     Er295    10.001   1_655     S
Ti536     Ti539    9.902   .     S
Ti536     H947    9.905   .     S
Ti536     Ti537    9.868   1_655     S
Ti537     V1576    10.026   .     S
Ti537     H724    9.905   .     S
Ti537     Ti536    9.868   1_455     S
Ti538     V1574    10.026   .     S
Ti538     H652    9.905   .     S
Ti538     Ti539    9.868   1_455     S
Ti539     V1598    10.026   .     S
Ti539     Er294    10.001   1_655     S
Ti539     H760    9.905   .     S
Ti539     Ti538    9.868   1_655     S
Ti540     V1560    10.026   .     S
Ti540     Ti542    9.902   .     S
Ti540     H1042    9.905   .     S
Ti540     Ti541    9.868   .     S
Ti541     V1600    10.026   .     S
Ti541     Ti544    9.902   .     S
Ti541     H1049    9.905   .     S
Ti542     V1560    10.026   .     S
Ti542     H1054    9.905   .     S
Ti542     Ti543    9.868   1_554     S
Ti543     V1593    10.026   .     S
Ti543     Er290    10.001   1_556     S
Ti543     Ti545    9.902   .     S
Ti543     H995    9.905   .     S
Ti543     Ti542    9.868   1_556     S
Ti544     V1600    10.026   .     S
Ti544     H827    9.905   .     S
Ti544     Ti545    9.868   1_554     S
Ti545     V1593    10.026   .     S
Ti545     Er288    10.001   1_556     S
Ti545     H959    9.905   .     S
Ti545     Ti544    9.868   1_556     S
Ti546     V1557    10.026   .     S
Ti546     Ti550    9.902   .     S
Ti546     H797    9.905   .     S
Ti546     Ti547    9.868   .     S
Ti547     V1561    10.026   .     S
Ti547     Ti549    9.902   .     S
Ti547     H791    9.905   .     S
Ti548     V1585    10.026   .     S
Ti548     Ti551    9.902   .     S
Ti548     H779    9.905   .     S
Ti548     Ti549    9.868   .     S
Ti549     V1561    10.026   .     S
Ti549     H784    9.905   .     S
Ti550     V1557    10.026   .     S
Ti550     H803    9.905   .     S
Ti550     Ti551    9.868   .     S
Ti551     V1585    10.026   .     S
Ti551     H809    9.905   .     S
Ti552     V1538    10.026   .     S
Ti552     Ti555    9.902   .     S
Ti552     H635    9.905   .     S
Ti552     Ti553    9.868   .     S
Ti553     V1551    10.026   .     S
Ti553     Ti556    9.902   .     S
Ti553     H712    9.905   .     S
Ti554     V1583    10.026   .     S
Ti554     Ti557    9.902   .     S
Ti554     H1061    9.905   .     S
Ti554     Ti555    9.868   .     S
Ti555     V1538    10.026   .     S
Ti555     H1066    9.905   .     S
Ti556     V1551    10.026   .     S
Ti556     H1007    9.905   .     S
Ti556     Ti557    9.868   .     S
Ti557     V1583    10.026   .     S
Ti557     H1031    9.905   .     S
Ti558     V1577    10.026   .     S
Ti558     Er292    10.001   1_556     S
Ti558     Ti560    9.902   .     S
Ti558     H755    9.905   .     S
Ti558     Ti559    9.868   1_556     S
Ti559     V1595    10.026   .     S
Ti559     Ti562    9.902   .     S
Ti559     H851    9.905   .     S
Ti559     Ti558    9.868   1_554     S
Ti560     V1577    10.026   .     S
Ti560     Er291    10.001   1_556     S
Ti560     H953    9.905   .     S
Ti560     Ti561    9.868   1_556     S
Ti561     V1596    10.026   .     S
Ti561     Ti563    9.902   .     S
Ti561     H844    9.905   .     S
Ti561     Ti560    9.868   1_554     S
Ti562     V1595    10.026   .     S
Ti562     H899    9.905   .     S
Ti562     Ti563    9.868   .     S
Ti563     V1596    10.026   .     S
Ti563     H893    9.905   .     S
Ti564     V1572    10.026   .     S
Ti564     Ti567    9.902   .     S
Ti564     H737    9.905   .     S
Ti564     Ti565    9.868   .     S
Ti565     V1568    10.026   .     S
Ti565     Ti569    9.902   .     S
Ti565     H742    9.905   .     S
Ti566     V1552    10.026   .     S
Ti566     Ti568    9.902   .     S
Ti566     H983    9.905   .     S
Ti566     Ti567    9.868   .     S
Ti567     V1572    10.026   .     S
Ti567     H719    9.905   .     S
Ti568     V1552    10.026   .     S
Ti568     H988    9.905   .     S
Ti568     Ti569    9.868   .     S
Ti569     V1568    10.026   .     S
Ti569     H749    9.905   .     S
Ti570     V1590    10.026   .     S
Ti570     Ti573    9.902   .     S
Ti570     H833    9.905   .     S
Ti570     Ti571    9.868   .     S
Ti571     V1539    10.026   .     S
Ti571     Ti574    9.902   .     S
Ti571     H838    9.905   .     S
Ti572     V1607    10.026   .     S
Ti572     Ti575    9.902   .     S
Ti572     H935    9.905   .     S
Ti572     Ti573    9.868   .     S
Ti573     V1590    10.026   .     S
Ti573     H923    9.905   .     S
Ti574     V1539    10.026   .     S
Ti574     H917    9.905   .     S
Ti574     Ti575    9.868   .     S
Ti575     V1607    10.026   .     S
Ti575     H929    9.905   .     S
He576     Li1315    9.906   .     S
He576     S578    9.848   .     S
He576     H581    9.864   .     S
He576     Be1380    9.945   .     S
He576     He577    9.784   1_556     S
He577     Li1297    9.906   .     S
He577     H580    9.864   .     S
He577     S579    9.848   .     S
He577     Be1460    9.945   .     S
He577     He576    9.784   1_554     S
S578     H581    10.013   .     S
S578     S783    9.891   .     S
S578     S644    9.891   .     S
S579     H580    10.013   .     S
S579     S585    9.891   .     S
S579     S884    9.891   .     S
H580     H887    9.898   .     S
H581     H785    9.898   .     S
He582     Li1170    9.906   .     S
He582     S584    9.848   .     S
He582     H587    9.864   .     S
He582     Be1347    9.945   .     S
He582     He583    9.784   1_565     S
He583     Li1295    9.906   .     S
He583     H586    9.864   .     S
He583     S585    9.848   .     S
He583     Be1382    9.945   .     S
He583     He582    9.784   1_545     S
S584     H587    10.013   .     S
S584     S830    9.891   .     S
S584     S614    9.891   .     S
S585     H586    10.013   .     S
S585     S603    9.891   .     S
H586     H605    9.898   .     S
H587     H832    9.898   .     S
He588     Li1319    9.906   .     S
He588     H593    9.864   .     S
He588     S591    9.848   .     S
He588     Be1510    9.945   .     S
He588     He589    9.784   .     S
He589     Li1190    9.906   .     S
He589     S590    9.848   .     S
He589     H592    9.864   .     S
He589     Be1481    9.945   .     S
S590     H592    10.013   .     S
S590     S1119    9.891   .     S
S590     S597    9.891   .     S
S591     H593    10.013   .     S
S591     S675    9.891   .     S
S591     S698    9.891   .     S
H592     H1121    9.898   .     S
H593     H701    9.898   .     S
He594     Li1181    9.906   .     S
He594     H598    9.864   .     S
He594     S596    9.848   .     S
He594     Be1430    9.945   .     S
He594     He595    9.784   .     S
He595     Li1158    9.906   .     S
He595     S597    9.848   .     S
He595     H599    9.864   .     S
He595     Be1400    9.945   .     S
S596     H598    10.013   .     S
S596     S855    9.891   .     S
S596     S872    9.891   .     S
S597     H599    10.013   .     S
S597     S1071    9.891   .     S
H598     H875    9.898   .     S
H599     H1073    9.898   .     S
He600     Li1277    9.906   .     S
He600     S603    9.848   .     S
He600     H605    9.864   .     S
He600     Be1416    9.945   .     S
He600     He601    9.784   .     S
He601     Li1343    9.906   .     S
He601     H604    9.864   .     S
He601     S602    9.848   .     S
He601     Be1388    9.945   .     S
S602     H604    10.013   .     S
S602     S867    9.891   .     S
S602     S1148    9.891   .     S
S603     H605    10.013   .     S
S603     S884    9.891   .     S
H604     H868    9.898   .     S
He606     Li1310    9.906   .     S
He606     H610    9.864   .     S
He606     S608    9.848   .     S
He606     Be1412    9.945   .     S
He606     He607    9.784   .     S
He607     Li1324    9.906   .     S
He607     S609    9.848   .     S
He607     H611    9.864   .     S
He607     Be1397    9.945   .     S
S608     H610    10.013   .     S
S608     S627    9.891   .     S
S608     S615    9.891   .     S
S609     H611    10.013   .     S
S609     S1022    9.891   .     S
S609     S1124    9.891   .     S
H610     H616    9.898   .     S
H611     H1024    9.898   .     S
He612     Li1314    9.906   .     S
He612     S614    9.848   .     S
He612     H617    9.864   .     S
He612     Be1379    9.945   .     S
He612     He613    9.784   1_655     S
He613     Li1210    9.906   .     S
He613     H616    9.864   .     S
He613     S615    9.848   .     S
He613     Be1459    9.945   .     S
He613     He612    9.784   1_455     S
S614     H617    10.013   .     S
S614     S837    9.891   .     S
S615     H616    10.013   .     S
S615     S621    9.891   .     S
H617     H839    9.898   .     S
He618     Li1183    9.906   .     S
He618     S620    9.848   .     S
He618     H623    9.864   .     S
He618     Be1355    9.945   .     S
He618     He619    9.784   1_556     S
He619     Li1209    9.906   .     S
He619     H622    9.864   .     S
He619     S621    9.848   .     S
He619     Be1456    9.945   .     S
He619     He618    9.784   1_554     S
S620     H623    10.013   .     S
S620     S734    9.891   .     S
S620     S638    9.891   .     S
S621     H622    10.013   .     S
S621     S627    9.891   .     S
H622     H629    9.898   .     S
H623     H736    9.898   .     S
He624     Li1238    9.906   .     S
He624     S627    9.848   .     S
He624     H629    9.864   .     S
He624     Be1415    9.945   .     S
He624     He625    9.784   .     S
He625     Li1342    9.906   .     S
He625     H628    9.864   .     S
He625     S626    9.848   .     S
He625     Be1387    9.945   .     S
S626     H628    10.013   .     S
S626     S1041    9.891   .     S
S626     S1076    9.891   .     S
S627     H629    10.013   .     S
H628     H1043    9.898   .     S
He630     Li1323    9.906   .     S
He630     H635    9.864   .     S
He630     S632    9.848   .     S
He630     Be1525    9.945   .     S
He630     He631    9.784   .     S
He631     Li1201    9.906   .     S
He631     S633    9.848   .     S
He631     H634    9.864   .     S
He631     Be1468    9.945   .     S
S632     H635    10.013   .     S
S632     S668    9.891   .     S
S632     S1064    9.891   .     S
S633     H634    10.013   .     S
S633     S699    9.891   .     S
S633     S711    9.891   .     S
H634     H700    9.898   .     S
H635     H1066    9.898   .     S
He636     Li1309    9.906   .     S
He636     H641    9.864   .     S
He636     S638    9.848   .     S
He636     Be1383    9.945   .     S
He636     He637    9.784   1_565     S
He637     Li1153    9.906   .     S
He637     S639    9.848   .     S
He637     H640    9.864   .     S
He637     Be1457    9.945   .     S
He637     He636    9.784   1_545     S
S638     H641    10.013   .     S
S638     S741    9.891   .     S
S639     H640    10.013   .     S
S639     S686    9.891   .     S
S639     S645    9.891   .     S
H640     H689    9.898   .     S
H641     H743    9.898   .     S
He642     Li1175    9.906   .     S
He642     S644    9.848   .     S
He642     H647    9.864   .     S
He642     Be1351    9.945   .     S
He642     He643    9.784   1_655     S
He643     Li1208    9.906   .     S
He643     H646    9.864   .     S
He643     S645    9.848   .     S
He643     Be1454    9.945   .     S
He643     He642    9.784   1_455     S
S644     H647    10.013   .     S
S644     S776    9.891   .     S
S645     H646    10.013   .     S
S645     S662    9.891   .     S
H646     H665    9.898   .     S
H647     H778    9.898   .     S
He648     Li1234    9.906   .     S
He648     S650    9.848   .     S
He648     H653    9.864   .     S
He648     Be1531    9.945   .     S
He648     He649    9.784   1_655     S
He649     Li1328    9.906   .     S
He649     H652    9.864   .     S
He649     S651    9.848   .     S
He649     Be1509    9.945   .     S
He649     He648    9.784   1_455     S
S650     H653    10.013   .     S
S650     S807    9.891   .     S
S650     S759    9.891   .     S
S651     H652    10.013   .     S
S651     S668    9.891   .     S
S651     S1064    9.891   .     S
H652     H670    9.898   .     S
H653     H808    9.898   .     S
He654     Li1202    9.906   .     S
He654     H659    9.864   .     S
He654     S656    9.848   .     S
He654     Be1490    9.945   .     S
He654     He655    9.784   .     S
He655     Li1195    9.906   .     S
He655     S657    9.848   .     S
He655     H658    9.864   .     S
He655     Be1369    9.945   .     S
S656     H659    10.013   .     S
S656     S716    9.891   .     S
S656     S723    9.891   .     S
S657     H658    10.013   .     S
S657     S669    9.891   .     S
S657     S1112    9.891   .     S
H658     H1114    9.898   .     S
H659     H724    9.898   .     S
He660     Li1274    9.906   .     S
He660     H665    9.864   .     S
He660     S662    9.848   .     S
He660     Be1414    9.945   .     S
He660     He661    9.784   .     S
He661     Li1312    9.906   .     S
He661     S663    9.848   .     S
He661     H664    9.864   .     S
He661     Be1370    9.945   .     S
S662     H665    10.013   .     S
S662     S686    9.891   .     S
S663     H664    10.013   .     S
S663     S669    9.891   .     S
S663     S1112    9.891   .     S
H664     H671    9.898   .     S
He666     Li1268    9.906   .     S
He666     H670    9.864   .     S
He666     S668    9.848   .     S
He666     Be1392    9.945   .     S
He666     He667    9.784   .     S
He667     Li1172    9.906   .     S
He667     S669    9.848   .     S
He667     H671    9.864   .     S
He667     Be1477    9.945   .     S
S668     H670    10.013   .     S
S669     H671    10.013   .     S
He672     Li1165    9.906   .     S
He672     S674    9.848   .     S
He672     H677    9.864   .     S
He672     Be1413    9.945   .     S
He672     He673    9.784   1_565     S
He673     Li1279    9.906   .     S
He673     H676    9.864   .     S
He673     S675    9.848   .     S
He673     Be1455    9.945   .     S
He673     He672    9.784   1_545     S
S674     H677    10.013   .     S
S674     S975    9.891   .     S
S674     S747    9.891   .     S
S675     H676    10.013   .     S
S675     S693    9.891   .     S
H676     H695    9.898   .     S
H677     H748    9.898   .     S
He678     Li1203    9.906   .     S
He678     H683    9.864   .     S
He678     S680    9.848   .     S
He678     Be1491    9.945   .     S
He678     He679    9.784   .     S
He679     Li1192    9.906   .     S
He679     S681    9.848   .     S
He679     H682    9.864   .     S
He679     Be1367    9.945   .     S
S680     H683    10.013   .     S
S680     S788    9.891   .     S
S680     S771    9.891   .     S
S681     H682    10.013   .     S
S681     S692    9.891   .     S
S681     S1082    9.891   .     S
H682     H1085    9.898   .     S
H683     H772    9.898   .     S
He684     Li1294    9.906   .     S
He684     H689    9.864   .     S
He684     S686    9.848   .     S
He684     Be1479    9.945   .     S
He684     He685    9.784   .     S
He685     Li1325    9.906   .     S
He685     S687    9.848   .     S
He685     H688    9.864   .     S
He685     Be1401    9.945   .     S
S686     H689    10.013   .     S
S687     H688    10.013   .     S
S687     S692    9.891   .     S
S687     S1082    9.891   .     S
H688     H694    9.898   .     S
He690     Li1293    9.906   .     S
He690     S693    9.848   .     S
He690     H695    9.864   .     S
He690     Be1487    9.945   .     S
He690     He691    9.784   .     S
He691     Li1318    9.906   .     S
He691     H694    9.864   .     S
He691     S692    9.848   .     S
He691     Be1497    9.945   .     S
S692     H694    10.013   .     S
S693     H695    10.013   .     S
S693     S698    9.891   .     S
He696     Li1298    9.906   .     S
He696     S698    9.848   .     S
He696     H701    9.864   .     S
He696     Be1462    9.945   .     S
He696     He697    9.784   .     S
He697     Li1304    9.906   .     S
He697     H700    9.864   .     S
He697     S699    9.848   .     S
He697     Be1471    9.945   .     S
S698     H701    10.013   .     S
S699     H700    10.013   .     S
S699     S705    9.891   .     S
He702     Li1246    9.906   .     S
He702     H706    9.864   .     S
He702     S704    9.848   .     S
He702     Be1438    9.945   .     S
He702     He703    9.784   .     S
He703     Li1256    9.906   .     S
He703     S705    9.848   .     S
He703     H707    9.864   .     S
He703     Be1446    9.945   .     S
S704     H706    10.013   .     S
S704     S794    9.891   .     S
S704     S818    9.891   .     S
S705     H707    10.013   .     S
S705     S711    9.891   .     S
H706     H820    9.898   .     S
H707     H713    9.898   .     S
He708     Li1229    9.906   .     S
He708     H712    9.864   .     S
He708     S710    9.848   .     S
He708     Be1423    9.945   .     S
He708     He709    9.784   .     S
He709     Li1253    9.906   .     S
He709     S711    9.848   .     S
He709     H713    9.864   .     S
He709     Be1443    9.945   .     S
S710     H712    10.013   .     S
S710     S981    9.891   .     S
S710     S1005    9.891   .     S
S711     H713    10.013   .     S
H712     H1007    9.898   .     S
He714     Li1321    9.906   .     S
He714     H719    9.864   .     S
He714     S716    9.848   .     S
He714     Be1535    9.945   .     S
He714     He715    9.784   .     S
He715     Li1275    9.906   .     S
He715     S717    9.848   .     S
He715     H718    9.864   .     S
He715     Be1472    9.945   .     S
S716     H719    10.013   .     S
S716     S735    9.891   .     S
S717     H718    10.013   .     S
S717     S980    9.891   .     S
S717     S1052    9.891   .     S
H718     H1055    9.898   .     S
H719     H737    9.898   .     S
He720     Li1218    9.906   .     S
He720     S722    9.848   .     S
He720     H725    9.864   .     S
He720     Be1373    9.945   .     S
He720     He721    9.784   1_655     S
He721     Li1281    9.906   .     S
He721     H724    9.864   .     S
He721     S723    9.848   .     S
He721     Be1511    9.945   .     S
He721     He720    9.784   1_455     S
S722     H725    10.013   .     S
S722     S944    9.891   .     S
S722     S842    9.891   .     S
S723     H724    10.013   .     S
S723     S735    9.891   .     S
H725     H845    9.898   .     S
He726     Li1222    9.906   .     S
He726     S728    9.848   .     S
He726     H731    9.864   .     S
He726     Be1374    9.945   .     S
He726     He727    9.784   1_655     S
He727     Li1284    9.906   .     S
He727     H730    9.864   .     S
He727     S729    9.848   .     S
He727     Be1514    9.945   .     S
He727     He726    9.784   1_455     S
S728     H731    10.013   .     S
S728     S939    9.891   .     S
S728     S764    9.891   .     S
S729     H730    10.013   .     S
S729     S740    9.891   .     S
S729     S1016    9.891   .     S
H730     H1019    9.898   .     S
H731     H767    9.898   .     S
He732     Li1188    9.906   .     S
He732     H736    9.864   .     S
He732     S734    9.848   .     S
He732     Be1366    9.945   .     S
He732     He733    9.784   .     S
He733     Li1272    9.906   .     S
He733     S735    9.848   .     S
He733     H737    9.864   .     S
He733     Be1418    9.945   .     S
S734     H736    10.013   .     S
S734     S741    9.891   .     S
S735     H737    10.013   .     S
He738     Li1171    9.906   .     S
He738     H742    9.864   .     S
He738     S740    9.848   .     S
He738     Be1508    9.945   .     S
He738     He739    9.784   .     S
He739     Li1157    9.906   .     S
He739     S741    9.848   .     S
He739     H743    9.864   .     S
He739     Be1346    9.945   .     S
S740     H742    10.013   .     S
S740     S746    9.891   .     S
S741     H743    10.013   .     S
H742     H749    9.898   .     S
He744     Li1283    9.906   .     S
He744     H749    9.864   .     S
He744     S746    9.848   .     S
He744     Be1526    9.945   .     S
He744     He745    9.784   .     S
He745     Li1199    9.906   .     S
He745     S747    9.848   .     S
He745     H748    9.864   .     S
He745     Be1358    9.945   .     S
S746     H749    10.013   .     S
S746     S1016    9.891   .     S
S747     H748    10.013   .     S
S747     S987    9.891   .     S
He750     Li1152    9.906   .     S
He750     S752    9.848   .     S
He750     H755    9.864   .     S
He750     Be1447    9.945   .     S
He750     He751    9.784   .     S
He751     Li1331    9.906   .     S
He751     H754    9.864   .     S
He751     S753    9.848   .     S
He751     Be1353    9.945   .     S
S752     H755    10.013   .     S
S752     S950    9.891   .     S
S752     S992    9.891   .     S
S753     H754    10.013   .     S
S753     S795    9.891   .     S
S753     S848    9.891   .     S
H754     H796    9.898   .     S
H755     H953    9.898   .     S
He756     Li1255    9.906   .     S
He756     H760    9.864   .     S
He756     S758    9.848   .     S
He756     Be1445    9.945   .     S
He756     He757    9.784   .     S
He757     Li1173    9.906   .     S
He757     S759    9.848   .     S
He757     H761    9.864   .     S
He757     Be1350    9.945   .     S
S758     H760    10.013   .     S
S758     S945    9.891   .     S
S758     S909    9.891   .     S
S759     H761    10.013   .     S
S759     S800    9.891   .     S
H760     H947    9.898   .     S
H761     H802    9.898   .     S
He762     Li1214    9.906   .     S
He762     S764    9.848   .     S
He762     H767    9.864   .     S
He762     Be1372    9.945   .     S
He762     He763    9.784   1_565     S
He763     Li1285    9.906   .     S
He763     H766    9.864   .     S
He763     S765    9.848   .     S
He763     Be1516    9.945   .     S
He763     He762    9.784   1_545     S
S764     H767    10.013   .     S
S764     S962    9.891   .     S
S765     H766    10.013   .     S
S765     S777    9.891   .     S
S765     S861    9.891   .     S
H766     H863    9.898   .     S
He768     Li1224    9.906   .     S
He768     S770    9.848   .     S
He768     H773    9.864   .     S
He768     Be1375    9.945   .     S
He768     He769    9.784   1_565     S
He769     Li1286    9.906   .     S
He769     H772    9.864   .     S
He769     S771    9.848   .     S
He769     Be1518    9.945   .     S
He769     He768    9.784   1_545     S
S770     H773    10.013   .     S
S770     S969    9.891   .     S
S770     S824    9.891   .     S
S771     H772    10.013   .     S
S771     S782    9.891   .     S
H773     H826    9.898   .     S
He774     Li1197    9.906   .     S
He774     H778    9.864   .     S
He774     S776    9.848   .     S
He774     Be1371    9.945   .     S
He774     He775    9.784   .     S
He775     Li1180    9.906   .     S
He775     S777    9.848   .     S
He775     H779    9.864   .     S
He775     Be1429    9.945   .     S
S776     H778    10.013   .     S
S776     S783    9.891   .     S
S777     H779    10.013   .     S
S777     S806    9.891   .     S
H779     H809    9.898   .     S
He780     Li1169    9.906   .     S
He780     H784    9.864   .     S
He780     S782    9.848   .     S
He780     Be1506    9.945   .     S
He780     He781    9.784   .     S
He781     Li1155    9.906   .     S
He781     S783    9.848   .     S
He781     H785    9.864   .     S
He781     Be1345    9.945   .     S
S782     H784    10.013   .     S
S782     S788    9.891   .     S
S783     H785    10.013   .     S
H784     H791    9.898   .     S
He786     Li1236    9.906   .     S
He786     H790    9.864   .     S
He786     S789    9.848   .     S
He786     Be1352    9.945   .     S
He786     He787    9.784   .     S
He787     Li1306    9.906   .     S
He787     S788    9.848   .     S
He787     H791    9.864   .     S
He787     Be1474    9.945   .     S
S788     H791    10.013   .     S
S789     H790    10.013   .     S
S789     S795    9.891   .     S
S789     S848    9.891   .     S
H790     H850    9.898   .     S
He792     Li1161    9.906   .     S
He792     S794    9.848   .     S
He792     H797    9.864   .     S
He792     Be1402    9.945   .     S
He792     He793    9.784   .     S
He793     Li1233    9.906   .     S
He793     H796    9.864   .     S
He793     S795    9.848   .     S
He793     Be1512    9.945   .     S
S794     H797    10.013   .     S
S794     S801    9.891   .     S
S795     H796    10.013   .     S
H797     H803    9.898   .     S
He798     Li1245    9.906   .     S
He798     H803    9.864   .     S
He798     S801    9.848   .     S
He798     Be1437    9.945   .     S
He798     He799    9.784   .     S
He799     Li1257    9.906   .     S
He799     S800    9.848   .     S
He799     H802    9.864   .     S
He799     Be1448    9.945   .     S
S800     H802    10.013   .     S
S800     S807    9.891   .     S
S801     H803    10.013   .     S
S801     S818    9.891   .     S
He804     Li1305    9.906   .     S
He804     H809    9.864   .     S
He804     S806    9.848   .     S
He804     Be1528    9.945   .     S
He804     He805    9.784   .     S
He805     Li1213    9.906   .     S
He805     S807    9.848   .     S
He805     H808    9.864   .     S
He805     Be1384    9.945   .     S
S806     H809    10.013   .     S
S806     S861    9.891   .     S
S807     H808    10.013   .     S
He810     Li1258    9.906   .     S
He810     H814    9.864   .     S
He810     S812    9.848   .     S
He810     Be1449    9.945   .     S
He810     He811    9.784   .     S
He811     Li1235    9.906   .     S
He811     S813    9.848   .     S
He811     H815    9.864   .     S
He811     Be1427    9.945   .     S
S812     H814    10.013   .     S
S812     S926    9.891   .     S
S812     S998    9.891   .     S
S813     H815    10.013   .     S
S813     S879    9.891   .     S
S813     S819    9.891   .     S
H814     H1000    9.898   .     S
H815     H821    9.898   .     S
He816     Li1241    9.906   .     S
He816     H820    9.864   .     S
He816     S818    9.848   .     S
He816     Be1433    9.945   .     S
He816     He817    9.784   .     S
He817     Li1220    9.906   .     S
He817     S819    9.848   .     S
He817     H821    9.864   .     S
He817     Be1417    9.945   .     S
S818     H820    10.013   .     S
S819     H821    10.013   .     S
S819     S873    9.891   .     S
He822     Li1232    9.906   .     S
He822     S824    9.848   .     S
He822     H826    9.864   .     S
He822     Be1377    9.945   .     S
He822     He823    9.784   1_556     S
He823     Li1289    9.906   .     S
He823     H827    9.864   .     S
He823     S825    9.848   .     S
He823     Be1523    9.945   .     S
He823     He822    9.784   1_554     S
S824     H826    10.013   .     S
S824     S956    9.891   .     S
S825     H827    10.013   .     S
S825     S831    9.891   .     S
S825     S1046    9.891   .     S
H827     H1049    9.898   .     S
He828     Li1278    9.906   .     S
He828     H833    9.864   .     S
He828     S831    9.848   .     S
He828     Be1524    9.945   .     S
He828     He829    9.784   .     S
He829     Li1186    9.906   .     S
He829     S830    9.848   .     S
He829     H832    9.864   .     S
He829     Be1365    9.945   .     S
S830     H832    10.013   .     S
S830     S837    9.891   .     S
S831     H833    10.013   .     S
S831     S920    9.891   .     S
H833     H923    9.898   .     S
He834     Li1154    9.906   .     S
He834     S837    9.848   .     S
He834     H839    9.864   .     S
He834     Be1344    9.945   .     S
He834     He835    9.784   .     S
He835     Li1191    9.906   .     S
He835     H838    9.864   .     S
He835     S836    9.848   .     S
He835     Be1522    9.945   .     S
S836     H838    10.013   .     S
S836     S843    9.891   .     S
S836     S914    9.891   .     S
S837     H839    10.013   .     S
H838     H917    9.898   .     S
He840     Li1226    9.906   .     S
He840     S842    9.848   .     S
He840     H845    9.864   .     S
He840     Be1376    9.945   .     S
He840     He841    9.784   1_556     S
He841     Li1288    9.906   .     S
He841     H844    9.864   .     S
He841     S843    9.848   .     S
He841     Be1520    9.945   .     S
He841     He840    9.784   1_554     S
S842     H845    10.013   .     S
S842     S951    9.891   .     S
S843     H844    10.013   .     S
S843     S890    9.891   .     S
H844     H893    9.898   .     S
He846     Li1303    9.906   .     S
He846     H850    9.864   .     S
He846     S848    9.848   .     S
He846     Be1496    9.945   .     S
He846     He847    9.784   1_556     S
He847     Li1290    9.906   .     S
He847     S849    9.848   .     S
He847     H851    9.864   .     S
He847     Be1461    9.945   .     S
He847     He846    9.784   1_554     S
S848     H850    10.013   .     S
S849     H851    10.013   .     S
S849     S897    9.891   .     S
S849     S1094    9.891   .     S
H851     H899    9.898   .     S
He852     Li1301    9.906   .     S
He852     S854    9.848   .     S
He852     H857    9.864   .     S
He852     Be1485    9.945   .     S
He852     He853    9.784   1_565     S
He853     Li1337    9.906   .     S
He853     H856    9.864   .     S
He853     S855    9.848   .     S
He853     Be1517    9.945   .     S
He853     He852    9.784   1_545     S
S854     H857    10.013   .     S
S854     S921    9.891   .     S
S854     S903    9.891   .     S
S855     H856    10.013   .     S
S855     S866    9.891   .     S
H856     H869    9.898   .     S
H857     H922    9.898   .     S
He858     Li1207    9.906   .     S
He858     H863    9.864   .     S
He858     S861    9.848   .     S
He858     Be1495    9.945   .     S
He858     He859    9.784   .     S
He859     Li1179    9.906   .     S
He859     S860    9.848   .     S
He859     H862    9.864   .     S
He859     Be1363    9.945   .     S
S860     H862    10.013   .     S
S860     S867    9.891   .     S
S860     S1148    9.891   .     S
S861     H863    10.013   .     S
H862     H1151    9.898   .     S
He864     Li1266    9.906   .     S
He864     H868    9.864   .     S
He864     S867    9.848   .     S
He864     Be1396    9.945   .     S
He864     He865    9.784   .     S
He865     Li1198    9.906   .     S
He865     S866    9.848   .     S
He865     H869    9.864   .     S
He865     Be1405    9.945   .     S
S866     H869    10.013   .     S
S866     S872    9.891   .     S
S867     H868    10.013   .     S
He870     Li1341    9.906   .     S
He870     H875    9.864   .     S
He870     S872    9.848   .     S
He870     Be1529    9.945   .     S
He870     He871    9.784   .     S
He871     Li1237    9.906   .     S
He871     S873    9.848   .     S
He871     H874    9.864   .     S
He871     Be1428    9.945   .     S
S872     H875    10.013   .     S
S873     H874    10.013   .     S
S873     S879    9.891   .     S
H874     H881    9.898   .     S
He876     Li1299    9.906   .     S
He876     S878    9.848   .     S
He876     H880    9.864   .     S
He876     Be1464    9.945   .     S
He876     He877    9.784   .     S
He877     Li1276    9.906   .     S
He877     H881    9.864   .     S
He877     S879    9.848   .     S
He877     Be1534    9.945   .     S
S878     H880    10.013   .     S
S878     S897    9.891   .     S
S878     S1094    9.891   .     S
S879     H881    10.013   .     S
H880     H1096    9.898   .     S
He882     Li1308    9.906   .     S
He882     H887    9.864   .     S
He882     S884    9.848   .     S
He882     Be1411    9.945   .     S
He882     He883    9.784   .     S
He883     Li1313    9.906   .     S
He883     S885    9.848   .     S
He883     H886    9.864   .     S
He883     Be1361    9.945   .     S
S884     H887    10.013   .     S
S885     H886    10.013   .     S
S885     S896    9.891   .     S
S885     S1130    9.891   .     S
H886     H898    9.898   .     S
He888     Li1204    9.906   .     S
He888     H893    9.864   .     S
He888     S890    9.848   .     S
He888     Be1493    9.945   .     S
He888     He889    9.784   .     S
He889     Li1174    9.906   .     S
He889     S891    9.848   .     S
He889     H892    9.864   .     S
He889     Be1362    9.945   .     S
S890     H893    10.013   .     S
S890     S914    9.891   .     S
S891     H892    10.013   .     S
S891     S896    9.891   .     S
S891     S1130    9.891   .     S
H892     H1133    9.898   .     S
He894     Li1296    9.906   .     S
He894     S897    9.848   .     S
He894     H899    9.864   .     S
He894     Be1492    9.945   .     S
He894     He895    9.784   .     S
He895     Li1311    9.906   .     S
He895     H898    9.864   .     S
He895     S896    9.848   .     S
He895     Be1499    9.945   .     S
S896     H898    10.013   .     S
S897     H899    10.013   .     S
He900     Li1242    9.906   .     S
He900     H905    9.864   .     S
He900     S902    9.848   .     S
He900     Be1434    9.945   .     S
He900     He901    9.784   .     S
He901     Li1327    9.906   .     S
He901     S903    9.848   .     S
He901     H904    9.864   .     S
He901     Be1385    9.945   .     S
S902     H905    10.013   .     S
S902     S963    9.891   .     S
S902     S974    9.891   .     S
S903     H904    10.013   .     S
S903     S932    9.891   .     S
H904     H934    9.898   .     S
H905     H965    9.898   .     S
He906     Li1261    9.906   .     S
He906     H911    9.864   .     S
He906     S909    9.848   .     S
He906     Be1452    9.945   .     S
He906     He907    9.784   .     S
He907     Li1334    9.906   .     S
He907     S908    9.848   .     S
He907     H910    9.864   .     S
He907     Be1390    9.945   .     S
S908     H910    10.013   .     S
S908     S927    9.891   .     S
S908     S1010    9.891   .     S
S909     H911    10.013   .     S
S909     S938    9.891   .     S
H910     H928    9.898   .     S
H911     H941    9.898   .     S
He912     Li1280    9.906   .     S
He912     S914    9.848   .     S
He912     H917    9.864   .     S
He912     Be1466    9.945   .     S
He912     He913    9.784   .     S
He913     Li1248    9.906   .     S
He913     H916    9.864   .     S
He913     S915    9.848   .     S
He913     Be1357    9.945   .     S
S914     H917    10.013   .     S
S915     H916    10.013   .     S
S915     S927    9.891   .     S
S915     S1010    9.891   .     S
H916     H1013    9.898   .     S
He918     Li1317    9.906   .     S
He918     S920    9.848   .     S
He918     H923    9.864   .     S
He918     Be1533    9.945   .     S
He918     He919    9.784   .     S
He919     Li1221    9.906   .     S
He919     H922    9.864   .     S
He919     S921    9.848   .     S
He919     Be1386    9.945   .     S
S920     H923    10.013   .     S
S920     S1046    9.891   .     S
S921     H922    10.013   .     S
S921     S932    9.891   .     S
He924     Li1160    9.906   .     S
He924     S926    9.848   .     S
He924     H929    9.864   .     S
He924     Be1395    9.945   .     S
He924     He925    9.784   .     S
He925     Li1217    9.906   .     S
He925     H928    9.864   .     S
He925     S927    9.848   .     S
He925     Be1507    9.945   .     S
S926     H929    10.013   .     S
S926     S933    9.891   .     S
S927     H928    10.013   .     S
H929     H935    9.898   .     S
He930     Li1244    9.906   .     S
He930     H935    9.864   .     S
He930     S933    9.848   .     S
He930     Be1436    9.945   .     S
He930     He931    9.784   .     S
He931     Li1300    9.906   .     S
He931     S932    9.848   .     S
He931     H934    9.864   .     S
He931     Be1419    9.945   .     S
S932     H934    10.013   .     S
S933     H935    10.013   .     S
S933     S998    9.891   .     S
He936     Li1254    9.906   .     S
He936     H941    9.864   .     S
He936     S938    9.848   .     S
He936     Be1444    9.945   .     S
He936     He937    9.784   .     S
He937     Li1330    9.906   .     S
He937     S939    9.848   .     S
He937     H940    9.864   .     S
He937     Be1389    9.945   .     S
S938     H941    10.013   .     S
S938     S945    9.891   .     S
S939     H940    10.013   .     S
S939     S962    9.891   .     S
H940     H964    9.898   .     S
He942     Li1263    9.906   .     S
He942     H947    9.864   .     S
He942     S945    9.848   .     S
He942     Be1453    9.945   .     S
He942     He943    9.784   .     S
He943     Li1333    9.906   .     S
He943     S944    9.848   .     S
He943     H946    9.864   .     S
He943     Be1354    9.945   .     S
S944     H946    10.013   .     S
S944     S951    9.891   .     S
S945     H947    10.013   .     S
H946     B1632    10.045   .     S
H946     H952    9.898   .     S
He948     Li1228    9.906   .     S
He948     H953    9.864   .     S
He948     S950    9.848   .     S
He948     Be1422    9.945   .     S
He948     He949    9.784   .     S
He949     Li1326    9.906   .     S
He949     S951    9.848   .     S
He949     H952    9.864   .     S
He949     Be1348    9.945   .     S
S950     H953    10.013   .     S
S950     S957    9.891   .     S
S951     H952    10.013   .     S
H952     B1632    10.045   .     S
He954     Li1243    9.906   .     S
He954     H959    9.864   .     S
He954     S957    9.848   .     S
He954     Be1435    9.945   .     S
He954     He955    9.784   .     S
He955     Li1329    9.906   .     S
He955     S956    9.848   .     S
He955     H958    9.864   .     S
He955     Be1349    9.945   .     S
S956     H958    10.013   .     S
S956     S969    9.891   .     S
S957     H959    10.013   .     S
S957     S992    9.891   .     S
H958     H971    9.898   .     S
H959     H995    9.898   .     S
He960     Li1260    9.906   .     S
He960     H965    9.864   .     S
He960     S963    9.848   .     S
He960     Be1451    9.945   .     S
He960     He961    9.784   .     S
He961     Li1336    9.906   .     S
He961     S962    9.848   .     S
He961     H964    9.864   .     S
He961     Be1356    9.945   .     S
S962     H964    10.013   .     S
S963     H965    10.013   .     S
S963     S968    9.891   .     S
He966     Li1231    9.906   .     S
He966     H970    9.864   .     S
He966     S968    9.848   .     S
He966     Be1425    9.945   .     S
He966     He967    9.784   .     S
He967     Li1339    9.906   .     S
He967     S969    9.848   .     S
He967     H971    9.864   .     S
He967     Be1394    9.945   .     S
S968     H970    10.013   .     S
S968     S974    9.891   .     S
S969     H971    10.013   .     S
H970     H977    9.898   .     S
He972     Li1259    9.906   .     S
He972     H977    9.864   .     S
He972     S974    9.848   .     S
He972     Be1450    9.945   .     S
He972     He973    9.784   .     S
He973     Li1338    9.906   .     S
He973     S975    9.848   .     S
He973     H976    9.864   .     S
He973     Be1393    9.945   .     S
S974     H977    10.013   .     S
S975     H976    10.013   .     S
S975     S987    9.891   .     S
H976     H989    9.898   .     S
He978     Li1249    9.906   .     S
He978     H983    9.864   .     S
He978     S981    9.848   .     S
He978     Be1440    9.945   .     S
He978     He979    9.784   .     S
He979     Li1302    9.906   .     S
He979     S980    9.848   .     S
He979     H982    9.864   .     S
He979     Be1420    9.945   .     S
S980     H982    10.013   .     S
S980     S993    9.891   .     S
S981     H983    10.013   .     S
S981     S986    9.891   .     S
H982     H994    9.898   .     S
H983     H988    9.898   .     S
He984     Li1230    9.906   .     S
He984     H988    9.864   .     S
He984     S986    9.848   .     S
He984     Be1424    9.945   .     S
He984     He985    9.784   .     S
He985     Li1251    9.906   .     S
He985     S987    9.848   .     S
He985     H989    9.864   .     S
He985     Be1521    9.945   .     S
S986     H988    10.013   .     S
S986     S1005    9.891   .     S
S987     H989    10.013   .     S
He990     Li1252    9.906   .     S
He990     H995    9.864   .     S
He990     S992    9.848   .     S
He990     Be1442    9.945   .     S
He990     He991    9.784   .     S
He991     Li1335    9.906   .     S
He991     S993    9.848   .     S
He991     H994    9.864   .     S
He991     Be1391    9.945   .     S
S992     H995    10.013   .     S
S993     H994    10.013   .     S
S993     S1052    9.891   .     S
He996     Li1250    9.906   .     S
He996     H1000    9.864   .     S
He996     S998    9.848   .     S
He996     Be1441    9.945   .     S
He996     He997    9.784   .     S
He997     Li1240    9.906   .     S
He997     S999    9.848   .     S
He997     H1001    9.864   .     S
He997     Be1432    9.945   .     S
S998     H1000    10.013   .     S
S999     H1001    10.013   .     S
S999     S1034    9.891   .     S
S999     S1004    9.891   .     S
H1001     H1006    9.898   .     S
He1002     Li1227    9.906   .     S
He1002     H1007    9.864   .     S
He1002     S1005    9.848   .     S
He1002     Be1421    9.945   .     S
He1002     He1003    9.784   .     S
He1003     Li1247    9.906   .     S
He1003     S1004    9.848   .     S
He1003     H1006    9.864   .     S
He1003     Be1439    9.945   .     S
S1004     H1006    10.013   .     S
S1004     S1029    9.891   .     S
S1005     H1007    10.013   .     S
He1008     Li1216    9.906   .     S
He1008     H1013    9.864   .     S
He1008     S1010    9.848   .     S
He1008     Be1530    9.945   .     S
He1008     He1009    9.784   1_655     S
He1009     Li1282    9.906   .     S
He1009     S1011    9.848   .     S
He1009     H1012    9.864   .     S
He1009     Be1458    9.945   .     S
He1009     He1008    9.784   1_455     S
S1010     H1013    10.013   .     S
S1011     H1012    10.013   .     S
S1011     S1023    9.891   .     S
S1011     S1058    9.891   .     S
H1012     H1025    9.898   .     S
He1014     Li1200    9.906   .     S
He1014     H1019    9.864   .     S
He1014     S1016    9.848   .     S
He1014     Be1488    9.945   .     S
He1014     He1015    9.784   .     S
He1015     Li1193    9.906   .     S
He1015     S1017    9.848   .     S
He1015     H1018    9.864   .     S
He1015     Be1368    9.945   .     S
S1016     H1019    10.013   .     S
S1017     H1018    10.013   .     S
S1017     S1022    9.891   .     S
S1017     S1124    9.891   .     S
H1018     H1127    9.898   .     S
He1020     Li1291    9.906   .     S
He1020     H1025    9.864   .     S
He1020     S1023    9.848   .     S
He1020     Be1486    9.945   .     S
He1020     He1021    9.784   .     S
He1021     Li1189    9.906   .     S
He1021     S1022    9.848   .     S
He1021     H1024    9.864   .     S
He1021     Be1480    9.945   .     S
S1022     H1024    10.013   .     S
S1023     H1025    10.013   .     S
S1023     S1028    9.891   .     S
He1026     Li1322    9.906   .     S
He1026     H1031    9.864   .     S
He1026     S1028    9.848   .     S
He1026     Be1498    9.945   .     S
He1026     He1027    9.784   .     S
He1027     Li1316    9.906   .     S
He1027     S1029    9.848   .     S
He1027     H1030    9.864   .     S
He1027     Be1431    9.945   .     S
S1028     H1031    10.013   .     S
S1028     S1058    9.891   .     S
S1029     H1030    10.013   .     S
S1029     S1034    9.891   .     S
H1030     H1036    9.898   .     S
H1031     H1061    9.898   .     S
He1032     Li1340    9.906   .     S
He1032     H1037    9.864   .     S
He1032     S1035    9.848   .     S
He1032     Be1527    9.945   .     S
He1032     He1033    9.784   .     S
He1033     Li1206    9.906   .     S
He1033     S1034    9.848   .     S
He1033     H1036    9.864   .     S
He1033     Be1475    9.945   .     S
S1034     H1036    10.013   .     S
S1035     H1037    10.013   .     S
S1035     S1040    9.891   .     S
S1035     S1100    9.891   .     S
H1037     H1102    9.898   .     S
He1038     Li1269    9.906   .     S
He1038     S1041    9.848   .     S
He1038     H1043    9.864   .     S
He1038     Be1399    9.945   .     S
He1038     He1039    9.784   .     S
He1039     Li1265    9.906   .     S
He1039     H1042    9.864   .     S
He1039     S1040    9.848   .     S
He1039     Be1381    9.945   .     S
S1040     H1042    10.013   .     S
S1040     S1053    9.891   .     S
S1041     H1043    10.013   .     S
S1041     S1047    9.891   .     S
H1042     H1054    9.898   .     S
He1044     Li1205    9.906   .     S
He1044     H1049    9.864   .     S
He1044     S1046    9.848   .     S
He1044     Be1494    9.945   .     S
He1044     He1045    9.784   .     S
He1045     Li1185    9.906   .     S
He1045     S1047    9.848   .     S
He1045     H1048    9.864   .     S
He1045     Be1364    9.945   .     S
S1046     H1049    10.013   .     S
S1047     H1048    10.013   .     S
S1047     S1076    9.891   .     S
H1048     H1079    9.898   .     S
He1050     Li1262    9.906   .     S
He1050     S1052    9.848   .     S
He1050     H1055    9.864   .     S
He1050     Be1532    9.945   .     S
He1050     He1051    9.784   1_556     S
He1051     Li1332    9.906   .     S
He1051     H1054    9.864   .     S
He1051     S1053    9.848   .     S
He1051     Be1515    9.945   .     S
He1051     He1050    9.784   1_554     S
S1052     H1055    10.013   .     S
S1053     H1054    10.013   .     S
S1053     S1100    9.891   .     S
He1056     Li1320    9.906   .     S
He1056     H1061    9.864   .     S
He1056     S1058    9.848   .     S
He1056     Be1513    9.945   .     S
He1056     He1057    9.784   .     S
He1057     Li1271    9.906   .     S
He1057     S1059    9.848   .     S
He1057     H1060    9.864   .     S
He1057     Be1484    9.945   .     S
S1058     H1061    10.013   .     S
S1059     H1060    10.013   .     S
S1059     S1136    9.891   .     S
S1059     S1065    9.891   .     S
H1060     H1138    9.898   .     S
He1062     Li1177    9.906   .     S
He1062     H1066    9.864   .     S
He1062     S1064    9.848   .     S
He1062     Be1426    9.945   .     S
He1062     He1063    9.784   .     S
He1063     Li1167    9.906   .     S
He1063     S1065    9.848   .     S
He1063     H1067    9.864   .     S
He1063     Be1360    9.945   .     S
S1064     H1066    10.013   .     S
S1065     H1067    10.013   .     S
S1065     S1143    9.891   .     S
H1067     H1144    9.898   .     S
He1068     Li1211    9.906   .     S
He1068     H1072    9.864   .     S
He1068     S1070    9.848   .     S
He1068     Be1476    9.945   .     S
He1068     He1069    9.784   .     S
He1069     Li1267    9.906   .     S
He1069     S1071    9.848   .     S
He1069     H1073    9.864   .     S
He1069     Be1478    9.945   .     S
S1070     H1072    10.013   .     S
S1070     S1077    9.891   .     S
S1070     S1088    9.891   .     S
S1071     H1073    10.013   .     S
S1071     S1119    9.891   .     S
H1072     H1090    9.898   .     S
He1074     Li1182    9.906   .     S
He1074     S1076    9.848   .     S
He1074     H1079    9.864   .     S
He1074     Be1502    9.945   .     S
He1074     He1075    9.784   1_565     S
He1075     Li1215    9.906   .     S
He1075     H1078    9.864   .     S
He1075     S1077    9.848   .     S
He1075     Be1406    9.945   .     S
He1075     He1074    9.784   1_545     S
S1076     H1079    10.013   .     S
S1077     H1078    10.013   .     S
S1077     S1083    9.891   .     S
H1078     H1084    9.898   .     S
He1080     Li1196    9.906   .     S
He1080     S1082    9.848   .     S
He1080     H1085    9.864   .     S
He1080     Be1505    9.945   .     S
He1080     He1081    9.784   1_556     S
He1081     Li1239    9.906   .     S
He1081     H1084    9.864   .     S
He1081     S1083    9.848   .     S
He1081     Be1410    9.945   .     S
He1081     He1080    9.784   1_554     S
S1082     H1085    10.013   .     S
S1083     H1084    10.013   .     S
S1083     S1088    9.891   .     S
He1086     Li1264    9.906   .     S
He1086     H1090    9.864   .     S
He1086     S1088    9.848   .     S
He1086     Be1463    9.945   .     S
He1086     He1087    9.784   .     S
He1087     Li1156    9.906   .     S
He1087     S1089    9.848   .     S
He1087     H1091    9.864   .     S
He1087     Be1398    9.945   .     S
S1088     H1090    10.013   .     S
S1089     H1091    10.013   .     S
S1089     S1095    9.891   .     S
S1089     S1107    9.891   .     S
H1091     H1097    9.898   .     S
He1092     Li1287    9.906   .     S
He1092     H1096    9.864   .     S
He1092     S1094    9.848   .     S
He1092     Be1519    9.945   .     S
He1092     He1093    9.784   .     S
He1093     Li1194    9.906   .     S
He1093     S1095    9.848   .     S
He1093     H1097    9.864   .     S
He1093     Be1482    9.945   .     S
S1094     H1096    10.013   .     S
S1095     H1097    10.013   .     S
S1095     S1101    9.891   .     S
He1098     Li1273    9.906   .     S
He1098     H1102    9.864   .     S
He1098     S1100    9.848   .     S
He1098     Be1378    9.945   .     S
He1098     He1099    9.784   .     S
He1099     Li1166    9.906   .     S
He1099     S1101    9.848   .     S
He1099     H1103    9.864   .     S
He1099     Be1359    9.945   .     S
S1100     H1102    10.013   .     S
S1101     H1103    10.013   .     S
S1101     S1107    9.891   .     S
H1103     H1108    9.898   .     S
He1104     Li1292    9.906   .     S
He1104     H1109    9.864   .     S
He1104     S1106    9.848   .     S
He1104     Be1465    9.945   .     S
He1104     He1105    9.784   .     S
He1105     Li1168    9.906   .     S
He1105     S1107    9.848   .     S
He1105     H1108    9.864   .     S
He1105     Be1489    9.945   .     S
S1106     H1109    10.013   .     S
S1106     S1113    9.891   .     S
S1106     S1137    9.891   .     S
S1107     H1108    10.013   .     S
H1109     H1139    9.898   .     S
He1110     Li1184    9.906   .     S
He1110     H1114    9.864   .     S
He1110     S1112    9.848   .     S
He1110     Be1503    9.945   .     S
He1110     He1111    9.784   1_556     S
He1111     Li1219    9.906   .     S
He1111     S1113    9.848   .     S
He1111     H1115    9.864   .     S
He1111     Be1407    9.945   .     S
He1111     He1110    9.784   1_554     S
S1112     H1114    10.013   .     S
S1113     H1115    10.013   .     S
S1113     S1131    9.891   .     S
H1115     H1132    9.898   .     S
He1116     Li1164    9.906   .     S
He1116     S1118    9.848   .     S
He1116     H1120    9.864   .     S
He1116     Be1470    9.945   .     S
He1116     He1117    9.784   .     S
He1117     Li1162    9.906   .     S
He1117     H1121    9.864   .     S
He1117     S1119    9.848   .     S
He1117     Be1473    9.945   .     S
S1118     H1120    10.013   .     S
S1118     S1142    9.891   .     S
S1118     S1125    9.891   .     S
S1119     H1121    10.013   .     S
H1120     H1145    9.898   .     S
He1122     Li1187    9.906   .     S
He1122     S1124    9.848   .     S
He1122     H1127    9.864   .     S
He1122     Be1504    9.945   .     S
He1122     He1123    9.784   1_565     S
He1123     Li1223    9.906   .     S
He1123     H1126    9.864   .     S
He1123     S1125    9.848   .     S
He1123     Be1408    9.945   .     S
He1123     He1122    9.784   1_545     S
S1124     H1127    10.013   .     S
S1125     H1126    10.013   .     S
S1125     S1149    9.891   .     S
H1126     H1150    9.898   .     S
He1128     Li1178    9.906   .     S
He1128     S1130    9.848   .     S
He1128     H1133    9.864   .     S
He1128     Be1501    9.945   .     S
He1128     He1129    9.784   1_655     S
He1129     Li1225    9.906   .     S
He1129     H1132    9.864   .     S
He1129     S1131    9.848   .     S
He1129     Be1409    9.945   .     S
He1129     He1128    9.784   1_455     S
S1130     H1133    10.013   .     S
S1131     H1132    10.013   .     S
S1131     S1137    9.891   .     S
He1134     Li1163    9.906   .     S
He1134     S1137    9.848   .     S
He1134     H1139    9.864   .     S
He1134     Be1467    9.945   .     S
He1134     He1135    9.784   .     S
He1135     Li1159    9.906   .     S
He1135     H1138    9.864   .     S
He1135     S1136    9.848   .     S
He1135     Be1403    9.945   .     S
S1136     H1138    10.013   .     S
S1136     S1143    9.891   .     S
S1137     H1139    10.013   .     S
He1140     Li1307    9.906   .     S
He1140     S1142    9.848   .     S
He1140     H1145    9.864   .     S
He1140     Be1469    9.945   .     S
He1140     He1141    9.784   .     S
He1141     Li1270    9.906   .     S
He1141     H1144    9.864   .     S
He1141     S1143    9.848   .     S
He1141     Be1483    9.945   .     S
S1142     H1145    10.013   .     S
S1142     S1149    9.891   .     S
S1143     H1144    10.013   .     S
He1146     Li1176    9.906   .     S
He1146     S1148    9.848   .     S
He1146     H1151    9.864   .     S
He1146     Be1500    9.945   .     S
He1146     He1147    9.784   1_655     S
He1147     Li1212    9.906   .     S
He1147     H1150    9.864   .     S
He1147     S1149    9.848   .     S
He1147     Be1404    9.945   .     S
He1147     He1146    9.784   1_455     S
S1148     H1151    10.013   .     S
S1149     H1150    10.013   .     S
Li1152     Li1228    9.994   .     S
Li1152     Be1353    10.137   .     S
Li1152     Be1447    10.091   .     S
Li1153     Li1294    9.994   .     S
Li1153     Be1383    10.137   1_545     S
Li1153     Be1457    10.091   .     S
Li1154     Li1314    9.994   .     S
Li1154     Be1522    10.137   .     S
Li1154     Be1344    10.091   .     S
Li1155     Li1315    9.994   .     S
Li1155     Be1506    10.137   .     S
Li1155     Be1345    10.091   .     S
Li1156     Li1194    9.994   .     S
Li1156     Be1463    10.137   .     S
Li1156     Be1398    10.091   .     S
Li1157     Li1309    9.994   .     S
Li1157     Be1508    10.137   .     S
Li1157     Be1346    10.091   .     S
Li1158     Li1267    9.994   .     S
Li1158     Be1430    10.137   .     S
Li1158     Be1400    10.091   .     S
Li1159     Li1271    9.994   .     S
Li1159     Be1467    10.137   .     S
Li1159     Be1403    10.091   .     S
Li1160     Li1244    9.994   .     S
Li1160     Be1507    10.137   .     S
Li1160     Be1395    10.091   .     S
Li1161     Li1245    9.994   .     S
Li1161     Be1512    10.137   .     S
Li1161     Be1402    10.091   .     S
Li1162     Li1190    9.994   .     S
Li1162     Be1470    10.137   .     S
Li1162     Be1473    10.091   .     S
Li1163     Li1292    9.994   .     S
Li1163     Be1403    10.137   .     S
Li1163     Be1467    10.091   .     S
Li1164     Li1307    9.994   .     S
Li1164     Be1473    10.137   .     S
Li1164     Be1470    10.091   .     S
Li1165     Li1199    9.994   .     S
Li1165     Be1455    10.137   1_565     S
Li1165     Be1413    10.091   .     S
Li1166     Li1168    9.994   .     S
Li1166     Be1378    10.137   .     S
Li1166     Be1359    10.091   .     S
Li1167     Li1270    9.994   .     S
Li1167     Be1426    10.137   .     S
Li1167     Be1360    10.091   .     S
Li1168     Be1465    10.137   .     S
Li1168     Be1489    10.091   .     S
Li1169     Li1306    9.994   .     S
Li1169     Be1345    10.137   .     S
Li1169     Be1506    10.091   .     S
Li1170     Li1186    9.994   .     S
Li1170     Be1382    10.137   1_565     S
Li1170     Be1347    10.091   .     S
Li1171     Li1283    9.994   .     S
Li1171     Be1346    10.137   .     S
Li1171     Be1508    10.091   .     S
Li1172     Li1312    9.994   .     S
Li1172     Be1392    10.137   .     S
Li1172     Be1477    10.091   .     S
Li1173     Li1257    9.994   .     S
Li1173     Be1445    10.137   .     S
Li1173     Be1350    10.091   .     S
Li1174     Li1178    9.994   .     S
Li1174     Be1493    10.137   .     S
Li1174     Be1362    10.091   .     S
Li1175     Li1197    9.994   .     S
Li1175     Be1454    10.137   1_655     S
Li1175     Be1351    10.091   .     S
Li1176     Li1179    9.994   .     S
Li1176     Be1404    10.137   1_655     S
Li1176     Be1500    10.091   .     S
Li1177     Li1323    9.994   .     S
Li1177     Be1360    10.137   .     S
Li1177     Be1426    10.091   .     S
Li1178     Be1409    10.137   1_655     S
Li1178     Be1501    10.091   .     S
Li1179     Be1495    10.137   .     S
Li1179     Be1363    10.091   .     S
Li1180     Li1305    9.994   .     S
Li1180     Be1371    10.137   .     S
Li1180     Be1429    10.091   .     S
Li1181     Li1341    9.994   .     S
Li1181     Be1400    10.137   .     S
Li1181     Be1430    10.091   .     S
Li1182     Li1185    9.994   .     S
Li1182     Be1406    10.137   1_565     S
Li1182     Be1502    10.091   .     S
Li1183     Li1188    9.994   .     S
Li1183     Be1456    10.137   1_556     S
Li1183     Be1355    10.091   .     S
Li1184     Li1195    9.994   .     S
Li1184     Be1407    10.137   1_556     S
Li1184     Be1503    10.091   .     S
Li1185     Be1494    10.137   .     S
Li1185     Be1364    10.091   .     S
Li1186     Be1524    10.137   .     S
Li1186     Be1365    10.091   .     S
Li1187     Li1193    9.994   .     S
Li1187     Be1408    10.137   1_565     S
Li1187     Be1504    10.091   .     S
Li1188     Be1418    10.137   .     S
Li1188     Be1366    10.091   .     S
Li1189     Li1324    9.994   .     S
Li1189     Be1486    10.137   .     S
Li1189     Be1480    10.091   .     S
Li1190     Be1510    10.137   .     S
Li1190     Be1481    10.091   .     S
Li1191     Li1280    9.994   .     S
Li1191     Be1344    10.137   .     S
Li1191     Be1522    10.091   .     S
Li1192     Li1196    9.994   .     S
Li1192     Be1491    10.137   .     S
Li1192     Be1367    10.091   .     S
Li1193     Be1488    10.137   .     S
Li1193     Be1368    10.091   .     S
Li1194     Be1519    10.137   .     S
Li1194     Be1482    10.091   .     S
Li1195     Be1490    10.137   .     S
Li1195     Be1369    10.091   .     S
Li1196     Be1410    10.137   1_556     S
Li1196     Be1505    10.091   .     S
Li1197     Be1429    10.137   .     S
Li1197     Be1371    10.091   .     S
Li1198     Li1337    9.994   .     S
Li1198     Be1396    10.137   .     S
Li1198     Be1405    10.091   .     S
Li1199     Be1526    10.137   .     S
Li1199     Be1358    10.091   .     S
Li1200     Li1284    9.994   .     S
Li1200     Be1368    10.137   .     S
Li1200     Be1488    10.091   .     S
Li1201     Li1304    9.994   .     S
Li1201     Be1525    10.137   .     S
Li1201     Be1468    10.091   .     S
Li1202     Li1281    9.994   .     S
Li1202     Be1369    10.137   .     S
Li1202     Be1490    10.091   .     S
Li1203     Li1286    9.994   .     S
Li1203     Be1367    10.137   .     S
Li1203     Be1491    10.091   .     S
Li1204     Li1288    9.994   .     S
Li1204     Be1362    10.137   .     S
Li1204     Be1493    10.091   .     S
Li1205     Li1289    9.994   .     S
Li1205     Be1364    10.137   .     S
Li1205     Be1494    10.091   .     S
Li1206     Li1316    9.994   .     S
Li1206     Be1527    10.137   .     S
Li1206     Be1475    10.091   .     S
Li1207     Li1285    9.994   .     S
Li1207     Be1363    10.137   .     S
Li1207     Be1495    10.091   .     S
Li1208     Li1274    9.994   .     S
Li1208     Be1351    10.137   1_455     S
Li1208     Be1454    10.091   .     S
Li1209     Li1238    9.994   .     S
Li1209     Be1355    10.137   1_554     S
Li1209     Be1456    10.091   .     S
Li1210     Li1310    9.994   .     S
Li1210     Be1379    10.137   1_455     S
Li1210     Be1459    10.091   .     S
Li1211     Li1264    9.994   .     S
Li1211     Be1478    10.137   .     S
Li1211     Be1476    10.091   .     S
Li1212     Li1223    9.994   .     S
Li1212     Be1500    10.137   1_455     S
Li1212     Be1404    10.091   .     S
Li1213     Li1234    9.994   .     S
Li1213     Be1528    10.137   .     S
Li1213     Be1384    10.091   .     S
Li1214     Li1222    9.994   .     S
Li1214     Be1516    10.137   1_565     S
Li1214     Be1372    10.091   .     S
Li1215     Li1239    9.994   .     S
Li1215     Be1502    10.137   1_545     S
Li1215     Be1406    10.091   .     S
Li1216     Li1248    9.994   .     S
Li1216     Be1458    10.137   1_655     S
Li1216     Be1530    10.091   .     S
Li1217     Li1334    9.994   .     S
Li1217     Be1395    10.137   .     S
Li1217     Be1507    10.091   .     S
Li1218     Li1226    9.994   .     S
Li1218     Be1511    10.137   1_655     S
Li1218     Be1373    10.091   .     S
Li1219     Li1225    9.994   .     S
Li1219     Be1503    10.137   1_554     S
Li1219     Be1407    10.091   .     S
Li1220     Li1235    9.994   .     S
Li1220     Be1433    10.137   .     S
Li1220     Be1417    10.091   .     S
Li1221     Li1301    9.994   .     S
Li1221     Be1533    10.137   .     S
Li1221     Be1386    10.091   .     S
Li1222     Be1514    10.137   1_655     S
Li1222     Be1374    10.091   .     S
Li1223     Be1504    10.137   1_545     S
Li1223     Be1408    10.091   .     S
Li1224     Li1232    9.994   .     S
Li1224     Be1518    10.137   1_565     S
Li1224     Be1375    10.091   .     S
Li1225     Be1501    10.137   1_455     S
Li1225     Be1409    10.091   .     S
Li1226     Be1520    10.137   1_556     S
Li1226     Be1376    10.091   .     S
Li1227     Li1229    9.994   .     S
Li1227     Be1439    10.137   .     S
Li1227     Be1421    10.091   .     S
Li1228     Be1348    10.137   .     S
Li1228     Be1422    10.091   .     S
Li1229     Be1443    10.137   .     S
Li1229     Be1423    10.091   .     S
Li1230     Li1249    9.994   .     S
Li1230     Be1521    10.137   .     S
Li1230     Be1424    10.091   .     S
Li1231     Li1259    9.994   .     S
Li1231     Be1394    10.137   .     S
Li1231     Be1425    10.091   .     S
Li1232     Be1523    10.137   1_556     S
Li1232     Be1377    10.091   .     S
Li1233     Li1331    9.994   .     S
Li1233     Be1402    10.137   .     S
Li1233     Be1512    10.091   .     S
Li1234     Be1509    10.137   1_655     S
Li1234     Be1531    10.091   .     S
Li1235     Be1449    10.137   .     S
Li1235     Be1427    10.091   .     S
Li1236     Li1303    9.994   .     S
Li1236     Be1474    10.137   .     S
Li1236     Be1352    10.091   .     S
Li1237     Li1276    9.994   .     S
Li1237     Be1529    10.137   .     S
Li1237     Be1428    10.091   .     S
Li1238     Be1387    10.137   .     S
Li1238     Be1415    10.091   .     S
Li1239     Be1505    10.137   1_554     S
Li1239     Be1410    10.091   .     S
Li1240     Li1247    9.994   .     S
Li1240     Be1441    10.137   .     S
Li1240     Be1432    10.091   .     S
Li1241     Li1246    9.994   .     S
Li1241     Be1417    10.137   .     S
Li1241     Be1433    10.091   .     S
Li1242     Li1260    9.994   .     S
Li1242     Be1385    10.137   .     S
Li1242     Be1434    10.091   .     S
Li1243     Li1252    9.994   .     S
Li1243     Be1349    10.137   .     S
Li1243     Be1435    10.091   .     S
Li1244     Be1419    10.137   .     S
Li1244     Be1436    10.091   .     S
Li1245     Be1448    10.137   .     S
Li1245     Be1437    10.091   .     S
Li1246     Be1446    10.137   .     S
Li1246     Be1438    10.091   .     S
Li1247     Be1421    10.137   .     S
Li1247     Be1439    10.091   .     S
Li1248     Be1466    10.137   .     S
Li1248     Be1357    10.091   .     S
Li1249     Be1420    10.137   .     S
Li1249     Be1440    10.091   .     S
Li1250     Li1258    9.994   .     S
Li1250     Be1432    10.137   .     S
Li1250     Be1441    10.091   .     S
Li1251     Li1338    9.994   .     S
Li1251     Be1424    10.137   .     S
Li1251     Be1521    10.091   .     S
Li1252     Be1391    10.137   .     S
Li1252     Be1442    10.091   .     S
Li1253     Li1256    9.994   .     S
Li1253     Be1423    10.137   .     S
Li1253     Be1443    10.091   .     S
Li1254     Li1261    9.994   .     S
Li1254     Be1389    10.137   .     S
Li1254     Be1444    10.091   .     S
Li1255     Li1263    9.994   .     S
Li1255     Be1350    10.137   .     S
Li1255     Be1445    10.091   .     S
Li1256     Be1438    10.137   .     S
Li1256     Be1446    10.091   .     S
Li1257     Be1437    10.137   .     S
Li1257     Be1448    10.091   .     S
Li1258     Be1427    10.137   .     S
Li1258     Be1449    10.091   .     S
Li1259     Be1393    10.137   .     S
Li1259     Be1450    10.091   .     S
Li1260     Be1356    10.137   .     S
Li1260     Be1451    10.091   .     S
Li1261     Be1390    10.137   .     S
Li1261     Be1452    10.091   .     S
Li1262     Li1275    9.994   .     S
Li1262     Be1515    10.137   1_556     S
Li1262     Be1532    10.091   .     S
Li1263     Be1354    10.137   .     S
Li1263     Be1453    10.091   .     S
Li1264     Be1398    10.137   .     S
Li1264     Be1463    10.091   .     S
Li1265     Li1332    9.994   .     S
Li1265     Be1399    10.137   .     S
Li1265     Be1381    10.091   .     S
Li1266     Li1343    9.994   .     S
Li1266     Be1405    10.137   .     S
Li1266     Be1396    10.091   .     S
Li1267     Be1476    10.137   .     S
Li1267     Be1478    10.091   .     S
Li1268     Li1328    9.994   .     S
Li1268     Be1477    10.137   .     S
Li1268     Be1392    10.091   .     S
Li1269     Li1342    9.994   .     S
Li1269     Be1381    10.137   .     S
Li1269     Be1399    10.091   .     S
Li1270     Be1469    10.137   .     S
Li1270     Be1483    10.091   .     S
Li1271     Be1513    10.137   .     S
Li1271     Be1484    10.091   .     S
Li1272     Li1321    9.994   .     S
Li1272     Be1366    10.137   .     S
Li1272     Be1418    10.091   .     S
Li1273     Li1340    9.994   .     S
Li1273     Be1359    10.137   .     S
Li1273     Be1378    10.091   .     S
Li1274     Be1370    10.137   .     S
Li1274     Be1414    10.091   .     S
Li1275     Be1535    10.137   .     S
Li1275     Be1472    10.091   .     S
Li1276     Be1464    10.137   .     S
Li1276     Be1534    10.091   .     S
Li1277     Li1295    9.994   .     S
Li1277     Be1388    10.137   .     S
Li1277     Be1416    10.091   .     S
Li1278     Li1317    9.994   .     S
Li1278     Be1365    10.137   .     S
Li1278     Be1524    10.091   .     S
Li1279     Li1293    9.994   .     S
Li1279     Be1413    10.137   1_545     S
Li1279     Be1455    10.091   .     S
Li1280     Be1357    10.137   .     S
Li1280     Be1466    10.091   .     S
Li1281     Be1373    10.137   1_455     S
Li1281     Be1511    10.091   .     S
Li1282     Li1291    9.994   .     S
Li1282     Be1530    10.137   1_455     S
Li1282     Be1458    10.091   .     S
Li1283     Be1358    10.137   .     S
Li1283     Be1526    10.091   .     S
Li1284     Be1374    10.137   1_455     S
Li1284     Be1514    10.091   .     S
Li1285     Be1372    10.137   1_545     S
Li1285     Be1516    10.091   .     S
Li1286     Be1375    10.137   1_545     S
Li1286     Be1518    10.091   .     S
Li1287     Li1299    9.994   .     S
Li1287     Be1482    10.137   .     S
Li1287     Be1519    10.091   .     S
Li1288     Be1376    10.137   1_554     S
Li1288     Be1520    10.091   .     S
Li1289     Be1377    10.137   1_554     S
Li1289     Be1523    10.091   .     S
Li1290     Li1296    9.994   .     S
Li1290     Be1496    10.137   1_554     S
Li1290     Be1461    10.091   .     S
Li1291     Be1480    10.137   .     S
Li1291     Be1486    10.091   .     S
Li1292     Be1489    10.137   .     S
Li1292     Be1465    10.091   .     S
Li1293     Be1497    10.137   .     S
Li1293     Be1487    10.091   .     S
Li1294     Be1401    10.137   .     S
Li1294     Be1479    10.091   .     S
Li1295     Be1347    10.137   1_545     S
Li1295     Be1382    10.091   .     S
Li1296     Be1499    10.137   .     S
Li1296     Be1492    10.091   .     S
Li1297     Li1308    9.994   .     S
Li1297     Be1380    10.137   1_554     S
Li1297     Be1460    10.091   .     S
Li1298     Li1319    9.994   .     S
Li1298     Be1471    10.137   .     S
Li1298     Be1462    10.091   .     S
Li1299     Be1534    10.137   .     S
Li1299     Be1464    10.091   .     S
Li1300     Li1327    9.994   .     S
Li1300     Be1436    10.137   .     S
Li1300     Be1419    10.091   .     S
Li1301     Be1517    10.137   1_565     S
Li1301     Be1485    10.091   .     S
Li1302     Li1335    9.994   .     S
Li1302     Be1440    10.137   .     S
Li1302     Be1420    10.091   .     S
Li1303     Be1461    10.137   1_556     S
Li1303     Be1496    10.091   .     S
Li1304     Be1462    10.137   .     S
Li1304     Be1471    10.091   .     S
Li1305     Be1384    10.137   .     S
Li1305     Be1528    10.091   .     S
Li1306     Be1352    10.137   .     S
Li1306     Be1474    10.091   .     S
Li1307     Be1483    10.137   .     S
Li1307     Be1469    10.091   .     S
Li1308     Be1361    10.137   .     S
Li1308     Be1411    10.091   .     S
Li1309     Be1457    10.137   1_565     S
Li1309     Be1383    10.091   .     S
Li1310     Be1397    10.137   .     S
Li1310     Be1412    10.091   .     S
Li1311     Li1313    9.994   .     S
Li1311     Be1492    10.137   .     S
Li1311     Be1499    10.091   .     S
Li1312     Be1414    10.137   .     S
Li1312     Be1370    10.091   .     S
Li1313     Be1411    10.137   .     S
Li1313     Be1361    10.091   .     S
Li1314     Be1459    10.137   1_655     S
Li1314     Be1379    10.091   .     S
Li1315     Be1460    10.137   1_556     S
Li1315     Be1380    10.091   .     S
Li1316     Be1498    10.137   .     S
Li1316     Be1431    10.091   .     S
Li1317     Be1386    10.137   .     S
Li1317     Be1533    10.091   .     S
Li1318     Li1325    9.994   .     S
Li1318     Be1487    10.137   .     S
Li1318     Be1497    10.091   .     S
Li1319     Be1481    10.137   .     S
Li1319     Be1510    10.091   .     S
Li1320     Li1322    9.994   .     S
Li1320     Be1484    10.137   .     S
Li1320     Be1513    10.091   .     S
Li1321     Be1472    10.137   .     S
Li1321     Be1535    10.091   .     S
Li1322     Be1431    10.137   .     S
Li1322     Be1498    10.091   .     S
Li1323     Be1468    10.137   .     S
Li1323     Be1525    10.091   .     S
Li1324     Be1412    10.137   .     S
Li1324     Be1397    10.091   .     S
Li1325     Be1479    10.137   .     S
Li1325     Be1401    10.091   .     S
Li1326     Li1333    9.994   .     S
Li1326     Be1422    10.137   .     S
Li1326     Be1348    10.091   .     S
Li1327     Be1434    10.137   .     S
Li1327     Be1385    10.091   .     S
Li1328     Be1531    10.137   1_455     S
Li1328     Be1509    10.091   .     S
Li1329     Li1339    9.994   .     S
Li1329     Be1435    10.137   .     S
Li1329     Be1349    10.091   .     S
Li1330     Li1336    9.994   .     S
Li1330     Be1444    10.137   .     S
Li1330     Be1389    10.091   .     S
Li1331     Be1447    10.137   .     S
Li1331     Be1353    10.091   .     S
Li1332     Be1532    10.137   1_554     S
Li1332     Be1515    10.091   .     S
Li1333     Be1453    10.137   .     S
Li1333     Be1354    10.091   .     S
Li1334     Be1452    10.137   .     S
Li1334     Be1390    10.091   .     S
Li1335     Be1442    10.137   .     S
Li1335     Be1391    10.091   .     S
Li1336     Be1451    10.137   .     S
Li1336     Be1356    10.091   .     S
Li1337     Be1485    10.137   1_545     S
Li1337     Be1517    10.091   .     S
Li1338     Be1450    10.137   .     S
Li1338     Be1393    10.091   .     S
Li1339     Be1425    10.137   .     S
Li1339     Be1394    10.091   .     S
Li1340     Be1475    10.137   .     S
Li1340     Be1527    10.091   .     S
Li1341     Be1428    10.137   .     S
Li1341     Be1529    10.091   .     S
Li1342     Be1415    10.137   .     S
Li1342     Be1387    10.091   .     S
Li1343     Be1416    10.137   .     S
Li1343     Be1388    10.091   .     S
Be1344     Be1379    10.031   .     S
Be1345     Be1380    10.031   .     S
Be1346     Be1383    10.031   .     S
Be1347     Be1365    10.031   .     S
Be1347     Li1295    10.137   1_565     S
Be1348     Be1354    10.031   .     S
Be1348     B1632    10.135   .     S
Be1349     Be1394    10.031   .     S
Be1350     Be1448    10.031   .     S
Be1351     Be1371    10.031   .     S
Be1351     Li1208    10.137   1_655     S
Be1352     Be1496    10.031   .     S
Be1353     Be1512    10.031   .     S
Be1354     B1632    10.135   .     S
Be1355     Be1366    10.031   .     S
Be1355     Li1209    10.137   1_556     S
Be1356     Be1389    10.031   .     S
Be1357     Be1530    10.031   .     S
Be1358     Be1413    10.031   .     S
Be1359     Be1489    10.031   .     S
Be1360     Be1483    10.031   .     S
Be1361     Be1499    10.031   .     S
Be1362     Be1501    10.031   .     S
Be1363     Be1500    10.031   .     S
Be1364     Be1502    10.031   .     S
Be1367     Be1505    10.031   .     S
Be1368     Be1504    10.031   .     S
Be1369     Be1503    10.031   .     S
Be1370     Be1477    10.031   .     S
Be1372     Be1374    10.031   .     S
Be1372     Li1285    10.137   1_565     S
Be1373     Be1376    10.031   .     S
Be1373     Li1281    10.137   1_655     S
Be1374     Li1284    10.137   1_655     S
Be1375     Be1377    10.031   .     S
Be1375     Li1286    10.137   1_565     S
Be1376     Li1288    10.137   1_556     S
Be1377     Li1289    10.137   1_556     S
Be1378     Be1527    10.031   .     S
Be1379     Li1210    10.137   1_655     S
Be1380     Li1297    10.137   1_556     S
Be1381     Be1515    10.031   .     S
Be1382     Be1416    10.031   .     S
Be1382     Li1170    10.137   1_545     S
Be1383     Li1153    10.137   1_565     S
Be1384     Be1531    10.031   .     S
Be1385     Be1419    10.031   .     S
Be1386     Be1485    10.031   .     S
Be1387     Be1399    10.031   .     S
Be1388     Be1396    10.031   .     S
Be1390     Be1507    10.031   .     S
Be1391     Be1420    10.031   .     S
Be1392     Be1509    10.031   .     S
Be1393     Be1521    10.031   .     S
Be1395     Be1436    10.031   .     S
Be1397     Be1480    10.031   .     S
Be1398     Be1482    10.031   .     S
Be1400     Be1478    10.031   .     S
Be1401     Be1497    10.031   .     S
Be1402     Be1437    10.031   .     S
Be1403     Be1484    10.031   .     S
Be1404     Be1408    10.031   .     S
Be1404     Li1176    10.137   1_455     S
Be1405     Be1517    10.031   .     S
Be1406     Be1410    10.031   .     S
Be1406     Li1182    10.137   1_545     S
Be1407     Be1409    10.031   .     S
Be1407     Li1184    10.137   1_554     S
Be1408     Li1187    10.137   1_545     S
Be1409     Li1178    10.137   1_455     S
Be1410     Li1196    10.137   1_554     S
Be1411     Be1460    10.031   .     S
Be1412     Be1459    10.031   .     S
Be1413     Li1279    10.137   1_565     S
Be1414     Be1454    10.031   .     S
Be1415     Be1456    10.031   .     S
Be1417     Be1427    10.031   .     S
Be1418     Be1535    10.031   .     S
Be1421     Be1423    10.031   .     S
Be1422     Be1447    10.031   .     S
Be1424     Be1440    10.031   .     S
Be1425     Be1450    10.031   .     S
Be1426     Be1525    10.031   .     S
Be1428     Be1534    10.031   .     S
Be1429     Be1528    10.031   .     S
Be1430     Be1529    10.031   .     S
Be1431     Be1475    10.031   .     S
Be1432     Be1439    10.031   .     S
Be1433     Be1438    10.031   .     S
Be1434     Be1451    10.031   .     S
Be1435     Be1442    10.031   .     S
Be1441     Be1449    10.031   .     S
Be1443     Be1446    10.031   .     S
Be1444     Be1452    10.031   .     S
Be1445     Be1453    10.031   .     S
Be1454     Li1175    10.137   1_455     S
Be1455     Be1487    10.031   .     S
Be1455     Li1165    10.137   1_545     S
Be1456     Li1183    10.137   1_554     S
Be1457     Be1479    10.031   .     S
Be1457     Li1309    10.137   1_545     S
Be1458     Be1486    10.031   .     S
Be1458     Li1216    10.137   1_455     S
Be1459     Li1314    10.137   1_455     S
Be1460     Li1315    10.137   1_554     S
Be1461     Be1492    10.031   .     S
Be1461     Li1303    10.137   1_554     S
Be1462     Be1510    10.031   .     S
Be1463     Be1476    10.031   .     S
Be1464     Be1519    10.031   .     S
Be1465     Be1467    10.031   .     S
Be1466     Be1522    10.031   .     S
Be1468     Be1471    10.031   .     S
Be1469     Be1470    10.031   .     S
Be1472     Be1532    10.031   .     S
Be1473     Be1481    10.031   .     S
Be1474     Be1506    10.031   .     S
Be1485     Li1337    10.137   1_565     S
Be1488     Be1514    10.031   .     S
Be1490     Be1511    10.031   .     S
Be1491     Be1518    10.031   .     S
Be1493     Be1520    10.031   .     S
Be1494     Be1523    10.031   .     S
Be1495     Be1516    10.031   .     S
Be1496     Li1290    10.137   1_556     S
Be1498     Be1513    10.031   .     S
Be1500     Li1212    10.137   1_655     S
Be1501     Li1225    10.137   1_655     S
Be1502     Li1215    10.137   1_565     S
Be1503     Li1219    10.137   1_556     S
Be1504     Li1223    10.137   1_565     S
Be1505     Li1239    10.137   1_556     S
Be1508     Be1526    10.031   .     S
Be1509     Li1234    10.137   1_455     S
Be1511     Li1218    10.137   1_455     S
Be1514     Li1222    10.137   1_455     S
Be1515     Li1262    10.137   1_554     S
Be1516     Li1214    10.137   1_545     S
Be1517     Li1301    10.137   1_545     S
Be1518     Li1224    10.137   1_545     S
Be1520     Li1226    10.137   1_554     S
Be1523     Li1232    10.137   1_554     S
Be1524     Be1533    10.031   .     S
Be1530     Li1282    10.137   1_655     S
Be1531     Li1328    10.137   1_655     S
Be1532     Li1332    10.137   1_556     S
V1536     V1617    10.137   1_556     S
V1536     V1591    10.137   .     S
V1537     V1549    10.137   .     S
V1537     V1554    10.137   .     S
V1538     V1551    10.137   .     S
V1538     V1583    10.137   .     S
V1539     V1607    10.137   .     S
V1539     V1590    10.137   .     S
V1540     V1541    10.137   .     S
V1540     V1614    10.137   .     S
V1541     V1614    10.137   .     S
V1542     V1578    10.137   .     S
V1542     V1630    10.137   1_655     S
V1543     V1601    10.137   1_556     S
V1543     V1612    10.137   1_655     S
V1544     V1609    10.137   1_556     S
V1544     V1602    10.137   1_565     S
V1545     V1599    10.137   .     S
V1545     V1611    10.137   1_556     S
V1546     V1618    10.137   1_655     S
V1546     V1579    10.137   .     S
V1547     V1613    10.137   1_655     S
V1547     V1610    10.137   1_565     S
V1548     V1550    10.137   1_545     S
V1548     V1588    10.137   1_545     S
V1549     V1554    10.137   .     S
V1550     V1548    10.137   1_565     S
V1550     V1588    10.137   .     S
V1551     V1583    10.137   .     S
V1552     V1568    10.137   .     S
V1552     V1572    10.137   .     S
V1553     V1559    10.137   .     S
V1553     V1567    10.137   .     S
V1555     V1563    10.137   .     S
V1555     V1615    10.137   .     S
V1556     V1565    10.137   .     S
V1556     V1587    10.137   .     S
V1557     V1561    10.137   .     S
V1557     V1585    10.137   .     S
V1558     V1582    10.137   .     S
V1558     V1570    10.137   .     S
V1559     V1567    10.137   .     S
V1560     V1593    10.137   1_554     S
V1560     V1600    10.137   .     S
V1561     V1585    10.137   .     S
V1562     V1606    10.137   1_556     S
V1562     V1616    10.137   1_456     S
V1563     V1615    10.137   .     S
V1564     V1592    10.137   1_545     S
V1564     V1589    10.137   .     S
V1565     V1587    10.137   .     S
V1566     V1581    10.137   1_545     S
V1566     V1586    10.137   .     S
V1568     V1572    10.137   .     S
V1569     V1605    10.137   1_565     S
V1569     V1619    10.137   1_564     S
V1570     V1582    10.137   .     S
V1571     V1597    10.137   1_455     S
V1571     V1580    10.137   .     S
V1573     V1594    10.137   .     S
V1573     V1603    10.137   1_565     S
V1574     V1598    10.137   1_455     S
V1574     V1576    10.137   .     S
V1575     V1626    10.137   .     S
V1575     V1629    10.137   .     S
V1576     V1598    10.137   1_455     S
V1577     V1595    10.137   1_556     S
V1577     V1596    10.137   1_556     S
V1578     V1630    10.137   1_655     S
V1579     V1618    10.137   1_655     S
V1580     V1597    10.137   1_455     S
V1581     V1566    10.137   1_565     S
V1581     V1586    10.137   1_565     S
V1584     V1604    10.137   1_565     S
V1584     V1608    10.137   1_465     S
V1586     V1581    10.137   1_545     S
V1588     V1548    10.137   1_565     S
V1589     V1592    10.137   1_545     S
V1590     V1607    10.137   .     S
V1591     V1617    10.137   1_556     S
V1592     V1564    10.137   1_565     S
V1592     V1589    10.137   1_565     S
V1593     V1560    10.137   1_556     S
V1593     V1600    10.137   1_556     S
V1594     V1603    10.137   1_565     S
V1595     V1577    10.137   1_554     S
V1595     V1596    10.137   .     S
V1596     V1577    10.137   1_554     S
V1597     V1571    10.137   1_655     S
V1597     V1580    10.137   1_655     S
V1598     V1576    10.137   1_655     S
V1598     V1574    10.137   1_655     S
V1599     V1611    10.137   1_556     S
V1600     V1593    10.137   1_554     S
V1601     V1543    10.137   1_554     S
V1601     V1612    10.137   1_654     S
V1602     V1544    10.137   1_545     S
V1602     V1609    10.137   1_546     S
V1603     V1594    10.137   1_545     S
V1603     V1573    10.137   1_545     S
V1604     V1584    10.137   1_545     S
V1604     V1608    10.137   1_455     S
V1605     V1619    10.137   1_554     S
V1605     V1569    10.137   1_545     S
V1606     V1562    10.137   1_554     S
V1606     V1616    10.137   1_455     S
V1608     V1604    10.137   1_655     S
V1608     V1584    10.137   1_645     S
V1609     V1544    10.137   1_554     S
V1609     V1602    10.137   1_564     S
V1610     V1547    10.137   1_545     S
V1610     V1613    10.137   1_645     S
V1611     V1545    10.137   1_554     S
V1611     V1599    10.137   1_554     S
V1612     V1543    10.137   1_455     S
V1612     V1601    10.137   1_456     S
V1613     V1547    10.137   1_455     S
V1613     V1610    10.137   1_465     S
V1616     V1606    10.137   1_655     S
V1616     V1562    10.137   1_654     S
V1617     V1536    10.137   1_554     S
V1617     V1591    10.137   1_554     S
V1618     V1546    10.137   1_455     S
V1618     V1579    10.137   1_455     S
V1619     V1605    10.137   1_556     S
V1619     V1569    10.137   1_546     S
V1620     V1625    10.137   .     S
V1620     V1624    10.137   .     S
V1620     B1632    10.232   .     S
V1621     V1623    10.137   .     S
V1621     V1631    10.137   .     S
V1622     V1627    10.137   .     S
V1622     V1628    10.137   .     S
V1623     V1631    10.137   .     S
V1624     V1625    10.137   .     S
V1626     V1629    10.137   .     S
V1627     V1628    10.137   .     S
V1630     V1542    10.137   1_455     S
V1630     V1578    10.137   1_455     S
