data_num
_audit_creation_date              2020-02-04
_audit_creation_method            'Pymatgen'
_symmetry_space_group_name_H-M    'P1'
_symmetry_Int_Tables_number       1
loop_
_symmetry_equiv_pos_as_xyz
  x,y,z
_cell_length_a                    100.9408
_cell_length_b                    100.9408
_cell_length_c                    100.9408
_cell_angle_alpha                 90.0
_cell_angle_beta                 90.0
_cell_angle_gamma                 90.0
loop_
_atom_site_label
_atom_site_type_symbol
_atom_site_fract_x
_atom_site_fract_y
_atom_site_fract_z
H1     H     0.1874   0.9913   0.9913
H2     H     0.9374   0.5087   0.2413
H3     H     0.7587   0.9913   0.5626
H4     H     0.6874   0.9913   0.4913
H5     H     0.6874   0.4913   0.9913
H6     H     0.7587   0.7587   0.1874
H7     H     0.9913   0.9913   0.1874
H8     H     0.0087   0.7413   0.9374
H9     H     0.7587   0.1874   0.7587
H10     H     0.0626   0.9913   0.2587
H11     H     0.1874   0.7587   0.7587
H12     H     0.7413   0.7413   0.8126
H13     H     0.8126   0.7413   0.7413
H14     H     0.7413   0.8126   0.7413
H15     H     0.9374   0.0087   0.7413
H16     H     0.7413   0.9374   0.0087
H17     H     0.9913   0.7587   0.5626
H18     H     0.5626   0.9913   0.7587
H19     H     0.5626   0.7587   0.9913
H20     H     0.2413   0.3126   0.7413
H21     H     0.7587   0.6874   0.2587
H22     H     0.2413   0.9374   0.5087
H23     H     0.6874   0.7587   0.2587
H24     H     0.9913   0.2587   0.0626
H25     H     0.6874   0.2587   0.7587
H26     H     0.7587   0.5626   0.9913
H27     H     0.7413   0.5087   0.4374
H28     H     0.4913   0.4913   0.1874
H29     H     0.9913   0.6874   0.4913
H30     H     0.2587   0.0626   0.9913
H31     H     0.5087   0.2413   0.9374
H32     H     0.2587   0.6874   0.7587
H33     H     0.2413   0.5087   0.9374
H34     H     0.1874   0.4913   0.4913
H35     H     0.9913   0.5626   0.7587
H36     H     0.4913   0.0626   0.7587
H37     H     0.8126   0.5087   0.5087
H38     H     0.1874   0.2587   0.2587
H39     H     0.4913   0.6874   0.9913
H40     H     0.7587   0.0626   0.4913
H41     H     0.0626   0.4913   0.7587
H42     H     0.2413   0.7413   0.3126
H43     H     0.5626   0.4913   0.2587
H44     H     0.5626   0.2587   0.4913
H45     H     0.3126   0.7413   0.2413
H46     H     0.0626   0.2587   0.9913
H47     H     0.4913   0.7587   0.0626
H48     H     0.4913   0.2587   0.5626
H49     H     0.2587   0.5626   0.4913
H50     H     0.5087   0.7413   0.4374
H51     H     0.7587   0.4913   0.0626
H52     H     0.2587   0.2587   0.1874
H53     H     0.4913   0.1874   0.4913
H54     H     0.2587   0.1874   0.2587
H55     H     0.7413   0.4374   0.5087
H56     H     0.7587   0.2587   0.6874
H57     H     0.9913   0.4913   0.6874
H58     H     0.3126   0.2413   0.7413
H59     H     0.0626   0.7587   0.4913
H60     H     0.5087   0.9374   0.2413
H61     H     0.7413   0.3126   0.2413
H62     H     0.9913   0.1874   0.9913
H63     H     0.7413   0.2413   0.3126
H64     H     0.2413   0.8126   0.2413
H65     H     0.8126   0.2413   0.2413
H66     H     0.7413   0.0087   0.9374
H67     H     0.3126   0.0087   0.5087
H68     H     0.4374   0.5087   0.7413
H69     H     0.9374   0.2413   0.5087
H70     H     0.0087   0.9374   0.7413
H71     H     0.2587   0.7587   0.6874
H72     H     0.4913   0.9913   0.6874
H73     H     0.9374   0.7413   0.0087
H74     H     0.2413   0.2413   0.8126
H75     H     0.3126   0.5087   0.0087
H76     H     0.5087   0.4374   0.7413
H77     H     0.5087   0.5087   0.8126
H78     H     0.0087   0.2413   0.4374
H79     H     0.2587   0.9913   0.0626
H80     H     0.2587   0.4913   0.5626
H81     H     0.9913   0.0626   0.2587
H82     H     0.2413   0.4374   0.0087
H83     H     0.4913   0.5626   0.2587
H84     H     0.4374   0.7413   0.5087
H85     H     0.5087   0.8126   0.5087
H86     H     0.8126   0.0087   0.0087
H87     H     0.4374   0.0087   0.2413
H88     H     0.5087   0.3126   0.0087
H89     H     0.0087   0.5087   0.3126
H90     H     0.0087   0.3126   0.5087
H91     H     0.5087   0.0087   0.3126
H92     H     0.0087   0.0087   0.8126
H93     H     0.0087   0.4374   0.2413
H94     H     0.0087   0.8126   0.0087
H95     H     0.4374   0.2413   0.0087
V96     V     0.0904   0.8451   0.1596
V97     V     0.1596   0.8451   0.0904
V98     V     0.5904   0.8451   0.6596
V99     V     0.6596   0.8451   0.5904
V100     V     0.6596   0.5904   0.8451
V101     V     0.5904   0.6596   0.8451
V102     V     0.4096   0.4096   0.5951
V103     V     0.3404   0.3404   0.5951
V104     V     0.8451   0.0904   0.1596
V105     V     0.8451   0.1596   0.0904
V106     V     0.4096   0.3404   0.1549
V107     V     0.3404   0.4096   0.1549
V108     V     0.6549   0.9096   0.3404
V109     V     0.6549   0.8404   0.4096
V110     V     0.4049   0.1596   0.1596
V111     V     0.4049   0.0904   0.0904
V112     V     0.5904   0.4049   0.5904
V113     V     0.6596   0.4049   0.6596
V114     V     0.3451   0.5904   0.1596
V115     V     0.3451   0.6596   0.0904
V116     V     0.9096   0.9096   0.5951
V117     V     0.8404   0.8404   0.5951
V118     V     0.5904   0.5904   0.4049
V119     V     0.6596   0.6596   0.4049
V120     V     0.9096   0.0951   0.4096
V121     V     0.8404   0.0951   0.3404
V122     V     0.5951   0.9096   0.9096
V123     V     0.5951   0.8404   0.8404
V124     V     0.4096   0.9096   0.0951
V125     V     0.3404   0.8404   0.0951
V126     V     0.9096   0.6549   0.3404
V127     V     0.8404   0.6549   0.4096
V128     V     0.9096   0.5951   0.9096
V129     V     0.8404   0.5951   0.8404
V130     V     0.4096   0.8404   0.6549
V131     V     0.3404   0.9096   0.6549
V132     V     0.6549   0.4096   0.8404
V133     V     0.6549   0.3404   0.9096
V134     V     0.9096   0.3404   0.6549
V135     V     0.8404   0.4096   0.6549
V136     V     0.9049   0.5904   0.0904
V137     V     0.9049   0.6596   0.1596
V138     V     0.1596   0.3451   0.5904
V139     V     0.0904   0.3451   0.6596
V140     V     0.5904   0.3451   0.1596
V141     V     0.6596   0.3451   0.0904
V142     V     0.0904   0.9049   0.5904
V143     V     0.1596   0.9049   0.6596
V144     V     0.5904   0.1596   0.3451
V145     V     0.6596   0.0904   0.3451
V146     V     0.5904   0.0904   0.9049
V147     V     0.6596   0.1596   0.9049
V148     V     0.1549   0.4096   0.3404
V149     V     0.1549   0.3404   0.4096
V150     V     0.8451   0.6596   0.5904
V151     V     0.8451   0.5904   0.6596
V152     V     0.3404   0.1549   0.4096
V153     V     0.4096   0.1549   0.3404
V154     V     0.4096   0.0951   0.9096
V155     V     0.3404   0.0951   0.8404
V156     V     0.9096   0.4096   0.0951
V157     V     0.8404   0.3404   0.0951
V158     V     0.1549   0.8404   0.9096
V159     V     0.1549   0.9096   0.8404
V160     V     0.5951   0.4096   0.4096
V161     V     0.5951   0.3404   0.3404
V162     V     0.9096   0.1549   0.8404
V163     V     0.8404   0.1549   0.9096
V164     V     0.0904   0.1596   0.8451
V165     V     0.1596   0.0904   0.8451
V166     V     0.8404   0.9096   0.1549
V167     V     0.9096   0.8404   0.1549
V168     V     0.0951   0.4096   0.9096
V169     V     0.0951   0.3404   0.8404
V170     V     0.5904   0.9049   0.0904
V171     V     0.6596   0.9049   0.1596
V172     V     0.3404   0.6549   0.9096
V173     V     0.4096   0.6549   0.8404
V174     V     0.4096   0.5951   0.4096
V175     V     0.3404   0.5951   0.3404
V176     V     0.1596   0.5904   0.3451
V177     V     0.0904   0.6596   0.3451
V178     V     0.4049   0.5904   0.5904
V179     V     0.4049   0.6596   0.6596
V180     V     0.0904   0.5904   0.9049
V181     V     0.1596   0.6596   0.9049
V182     V     0.0951   0.9096   0.4096
V183     V     0.0951   0.8404   0.3404
V184     V     0.0904   0.4049   0.0904
V185     V     0.1596   0.4049   0.1596
V186     V     0.3451   0.1596   0.5904
V187     V     0.3451   0.0904   0.6596
V188     V     0.9049   0.0904   0.5904
V189     V     0.9049   0.1596   0.6596
V190     V     0.0904   0.0904   0.4049
V191     V     0.1596   0.1596   0.4049
Ce192     Ce     0.3748   0.4441   0.3059
Ce193     Ce     0.3059   0.3748   0.4441
Ce194     Ce     0.1941   0.1251   0.5559
Ce195     Ce     0.1252   0.5559   0.1941
Ce196     Ce     0.3752   0.3059   0.3059
Ce197     Ce     0.3059   0.3752   0.3059
Ce198     Ce     0.0559   0.1248   0.5559
Ce199     Ce     0.5559   0.0559   0.1248
Ce200     Ce     0.9441   0.3059   0.8748
Ce201     Ce     0.9441   0.4441   0.8752
Ce202     Ce     0.9441   0.8752   0.4441
Ce203     Ce     0.4441   0.9441   0.8752
Ce204     Ce     0.3059   0.9441   0.8748
Ce205     Ce     0.6941   0.6941   0.6248
Ce206     Ce     0.4441   0.3059   0.3748
Ce207     Ce     0.0559   0.5559   0.1248
Ce208     Ce     0.3748   0.8059   0.9441
Ce209     Ce     0.4441   0.8748   0.8059
Ce210     Ce     0.4441   0.8059   0.8748
Ce211     Ce     0.1941   0.1248   0.6941
Ce212     Ce     0.3748   0.3059   0.4441
Ce213     Ce     0.5559   0.1248   0.0559
Ce214     Ce     0.6248   0.6941   0.6941
Ce215     Ce     0.6941   0.6248   0.6941
Ce216     Ce     0.6248   0.0559   0.0559
Ce217     Ce     0.0559   0.6248   0.0559
Ce218     Ce     0.0559   0.0559   0.6248
Ce219     Ce     0.6941   0.0559   0.1252
He220     He     0.6502   0.7203   0.9589
He221     He     0.7203   0.6502   0.9589
He222     He     0.7797   0.7089   0.9002
He223     He     0.7089   0.7797   0.9002
He224     He     0.6502   0.7911   0.0297
He225     He     0.7089   0.8498   0.9703
He226     He     0.7911   0.7203   0.0998
He227     He     0.7911   0.6502   0.0297
He228     He     0.8498   0.7089   0.9703
Er229     Er     0.621   0.75   0.871
Ti230     Ti     0.5359   0.7837   0.8982
Ti231     Ti     0.6482   0.7163   0.7859
Er232     Er     0.75   0.621   0.871
Ti233     Ti     0.7837   0.5359   0.8982
Ti234     Ti     0.7163   0.6482   0.7859
Er235     Er     0.879   0.621   0.0
Ti236     Ti     0.8518   0.5359   0.9663
Ti237     Ti     0.9641   0.6482   0.0337
Er238     Er     0.879   0.75   0.1289
Ti239     Ti     0.8518   0.7837   0.2141
Ti240     Ti     0.9641   0.7163   0.1018
Er241     Er     0.621   0.879   0.0
Ti242     Ti     0.5359   0.8518   0.9663
Ti243     Ti     0.6482   0.9641   0.0337
Er244     Er     0.75   0.879   0.129
Ti245     Ti     0.7163   0.9641   0.1018
Ti246     Ti     0.7837   0.8518   0.2141
He247     He     0.8498   0.7797   0.0411
He248     He     0.7203   0.7911   0.0998
He249     He     0.7797   0.8498   0.0411
Ce250     Ce     0.4441   0.8752   0.9441
Ce251     Ce     0.0559   0.6941   0.1252
He252     He     0.7203   0.9589   0.6502
He253     He     0.6502   0.9589   0.7203
He254     He     0.7089   0.9002   0.7797
He255     He     0.8498   0.0411   0.7797
He256     He     0.7797   0.9002   0.7089
He257     He     0.7911   0.0998   0.7203
He258     He     0.7203   0.0998   0.7911
He259     He     0.6502   0.0297   0.7911
He260     He     0.7089   0.9703   0.8498
Er261     Er     0.621   0.871   0.75
Ti262     Ti     0.5359   0.8982   0.7837
Ti263     Ti     0.6482   0.7859   0.7163
Er264     Er     0.75   0.871   0.621
Ti265     Ti     0.7837   0.8982   0.5359
Ti266     Ti     0.7163   0.7859   0.6482
Er267     Er     0.621   0.0   0.879
Ti268     Ti     0.5359   0.9663   0.8518
Ti269     Ti     0.6482   0.0337   0.9641
Er270     Er     0.75   0.129   0.879
Ti271     Ti     0.7837   0.2141   0.8518
Ti272     Ti     0.7163   0.1018   0.9641
Er273     Er     0.879   0.0   0.621
Ti274     Ti     0.8518   0.9663   0.5359
Ti275     Ti     0.9641   0.0337   0.6482
Er276     Er     0.879   0.129   0.75
Ti277     Ti     0.9641   0.1018   0.7163
Ti278     Ti     0.8518   0.2141   0.7837
He279     He     0.7797   0.0411   0.8498
He280     He     0.7911   0.0297   0.6502
He281     He     0.8498   0.9703   0.7089
Ce282     Ce     0.0559   0.1252   0.6941
He283     He     0.9589   0.0998   0.0297
He284     He     0.0297   0.9589   0.0998
He285     He     0.9703   0.9002   0.0411
He286     He     0.9589   0.0297   0.0998
He287     He     0.9002   0.0411   0.9703
He288     He     0.0998   0.9589   0.0297
He289     He     0.0297   0.0998   0.9589
He290     He     0.0411   0.9703   0.9002
He291     He     0.0411   0.9002   0.9703
He292     He     0.9703   0.0411   0.9002
He293     He     0.9002   0.9703   0.0411
Er294     Er     0.0   0.129   0.871
Ti295     Ti     0.9663   0.2141   0.8982
Ti296     Ti     0.0337   0.1018   0.7859
Er297     Er     0.129   0.0   0.8711
Ti298     Ti     0.2141   0.9663   0.8982
Ti299     Ti     0.1018   0.0337   0.7859
Er300     Er     0.871   0.0   0.1289
Ti301     Ti     0.8982   0.9663   0.2141
Ti302     Ti     0.7859   0.0337   0.1018
Er303     Er     0.871   0.129   0.0
Ti304     Ti     0.8982   0.2141   0.9663
Ti305     Ti     0.7859   0.1018   0.0337
Er306     Er     0.0   0.871   0.129
Ti307     Ti     0.9663   0.8982   0.2141
Ti308     Ti     0.0337   0.7859   0.1018
Er309     Er     0.129   0.871   0.0
Ti310     Ti     0.2141   0.8982   0.9663
Ti311     Ti     0.1018   0.7859   0.0337
He312     He     0.0998   0.0297   0.9589
He313     He     0.9589   0.6502   0.7203
He314     He     0.9589   0.7203   0.6502
He315     He     0.9002   0.7797   0.7089
He316     He     0.0998   0.7203   0.7911
He317     He     0.0411   0.7797   0.8498
He318     He     0.9002   0.7089   0.7797
He319     He     0.0998   0.7911   0.7203
He320     He     0.0297   0.7911   0.6502
He321     He     0.9703   0.8498   0.7089
Er322     Er     0.871   0.621   0.75
Ti323     Ti     0.8982   0.5359   0.7837
Ti324     Ti     0.7859   0.6482   0.7163
Er325     Er     0.871   0.75   0.621
Ti326     Ti     0.8982   0.7837   0.5359
Ti327     Ti     0.7859   0.7163   0.6482
Er328     Er     0.0   0.879   0.621
Ti329     Ti     0.9663   0.8518   0.5359
Ti330     Ti     0.0337   0.9641   0.6482
Er331     Er     0.129   0.879   0.75
Ti332     Ti     0.2141   0.8518   0.7837
Ti333     Ti     0.1018   0.9641   0.7163
Er334     Er     0.0   0.621   0.879
Ti335     Ti     0.9663   0.5359   0.8518
Ti336     Ti     0.0337   0.6482   0.9641
Er337     Er     0.129   0.75   0.879
Ti338     Ti     0.1018   0.7163   0.9641
Ti339     Ti     0.2141   0.7837   0.8518
He340     He     0.0411   0.8498   0.7797
He341     He     0.0297   0.6502   0.7911
He342     He     0.9703   0.7089   0.8498
Ce343     Ce     0.1252   0.6941   0.0559
Ce344     Ce     0.8748   0.8059   0.4441
Ce345     Ce     0.8752   0.9441   0.4441
Ce346     Ce     0.8059   0.4441   0.8748
Ce347     Ce     0.1248   0.5559   0.0559
Ce348     Ce     0.9441   0.8748   0.3059
Ce349     Ce     0.1248   0.0559   0.5559
Ce350     Ce     0.8752   0.4441   0.9441
Ce351     Ce     0.8748   0.9441   0.3059
Ce352     Ce     0.3059   0.8752   0.8059
Ce353     Ce     0.3059   0.8748   0.9441
Ce354     Ce     0.8059   0.8752   0.3059
Ce355     Ce     0.8059   0.8748   0.4441
Ce356     Ce     0.8748   0.3059   0.9441
Ce357     Ce     0.8752   0.3059   0.8059
Ce358     Ce     0.8059   0.9441   0.3748
He359     He     0.5998   0.7203   0.2911
He360     He     0.5411   0.7797   0.3498
He361     He     0.4589   0.7203   0.1502
He362     He     0.4002   0.7089   0.2797
He363     He     0.4589   0.6502   0.2203
He364     He     0.4703   0.8498   0.2089
He365     He     0.5297   0.7911   0.1502
Er366     Er     0.371   0.75   0.1211
Ti367     Ti     0.2859   0.7163   0.1482
Ti368     Ti     0.3982   0.7837   0.0359
Er369     Er     0.371   0.621   0.25
Ti370     Ti     0.3982   0.5359   0.2837
Ti371     Ti     0.2859   0.6482   0.2163
Er372     Er     0.5   0.879   0.121
Ti373     Ti     0.5337   0.9641   0.1482
Ti374     Ti     0.4663   0.8518   0.0359
Er375     Er     0.5   0.621   0.379
Ti376     Ti     0.5337   0.6482   0.4641
Ti377     Ti     0.4663   0.5359   0.3518
Er378     Er     0.629   0.879   0.25
Ti379     Ti     0.6018   0.9641   0.2163
Ti380     Ti     0.7141   0.8518   0.2837
Er381     Er     0.629   0.75   0.379
Ti382     Ti     0.6018   0.7163   0.4641
Ti383     Ti     0.7141   0.7837   0.3518
He384     He     0.4002   0.7797   0.2089
He385     He     0.5411   0.8498   0.2797
He386     He     0.5998   0.7911   0.2203
He387     He     0.4703   0.7089   0.3498
He388     He     0.5297   0.6502   0.2911
Ce389     Ce     0.8059   0.3748   0.9441
He390     He     0.8498   0.5411   0.2797
He391     He     0.7089   0.4703   0.3498
He392     He     0.6502   0.5297   0.2911
He393     He     0.7797   0.5411   0.3498
He394     He     0.7203   0.5998   0.2911
He395     He     0.7089   0.4002   0.2797
He396     He     0.6502   0.4589   0.2203
He397     He     0.7911   0.5297   0.1502
Er398     Er     0.879   0.629   0.25
Ti399     Ti     0.9641   0.6018   0.2163
Ti400     Ti     0.8518   0.7141   0.2837
Er401     Er     0.75   0.629   0.379
Ti402     Ti     0.7163   0.6018   0.4641
Ti403     Ti     0.7837   0.7141   0.3518
Er404     Er     0.621   0.5   0.379
Ti405     Ti     0.6482   0.5337   0.4641
Ti406     Ti     0.5359   0.4663   0.3518
Er407     Er     0.621   0.371   0.25
Ti408     Ti     0.6482   0.2859   0.2163
Ti409     Ti     0.5359   0.3982   0.2837
Er410     Er     0.879   0.5   0.121
Ti411     Ti     0.9641   0.5337   0.1482
Ti412     Ti     0.8518   0.4663   0.0359
Er413     Er     0.75   0.371   0.121
Ti414     Ti     0.7837   0.3982   0.0359
Ti415     Ti     0.7163   0.2859   0.1482
He416     He     0.7911   0.5998   0.2203
He417     He     0.8498   0.4703   0.2089
He418     He     0.7203   0.4589   0.1502
He419     He     0.7797   0.4002   0.2089
Ce420     Ce     0.0559   0.1941   0.6252
He421     He     0.7203   0.2911   0.5998
He422     He     0.7797   0.3498   0.5411
He423     He     0.7089   0.2797   0.4002
He424     He     0.6502   0.2203   0.4589
He425     He     0.7797   0.2089   0.4002
He426     He     0.8498   0.2089   0.4703
Er427     Er     0.75   0.121   0.371
Ti428     Ti     0.7163   0.1482   0.2859
Ti429     Ti     0.7837   0.0359   0.3982
Er430     Er     0.879   0.121   0.5
Ti431     Ti     0.9641   0.1482   0.5337
Ti432     Ti     0.8518   0.0359   0.4663
Er433     Er     0.621   0.25   0.371
Ti434     Ti     0.5359   0.2837   0.3982
Ti435     Ti     0.6482   0.2163   0.2859
Er436     Er     0.621   0.379   0.5
Ti437     Ti     0.6482   0.4641   0.5337
Ti438     Ti     0.5359   0.3518   0.4663
Er439     Er     0.879   0.25   0.629
Ti440     Ti     0.9641   0.2163   0.6018
Ti441     Ti     0.8518   0.2837   0.7141
Er442     Er     0.75   0.379   0.629
Ti443     Ti     0.7163   0.4641   0.6018
Ti444     Ti     0.7837   0.3518   0.7141
He445     He     0.7911   0.1502   0.5297
He446     He     0.7911   0.2203   0.5998
He447     He     0.8498   0.2797   0.5411
He448     He     0.7089   0.3498   0.4703
He449     He     0.6502   0.2911   0.5297
He450     He     0.7203   0.1502   0.4589
Ce451     Ce     0.3748   0.9441   0.8059
He452     He     0.5411   0.2797   0.8498
He453     He     0.4589   0.2203   0.6502
He454     He     0.4703   0.3498   0.7089
He455     He     0.5297   0.2911   0.6502
He456     He     0.5411   0.3498   0.7797
He457     He     0.5998   0.2911   0.7203
He458     He     0.4002   0.2797   0.7089
He459     He     0.4703   0.2089   0.8498
He460     He     0.5998   0.2203   0.7911
Er461     Er     0.371   0.25   0.621
Ti462     Ti     0.2859   0.2163   0.6482
Ti463     Ti     0.3982   0.2837   0.5359
Er464     Er     0.5   0.121   0.879
Ti465     Ti     0.5337   0.1482   0.9641
Ti466     Ti     0.4663   0.0359   0.8518
Er467     Er     0.371   0.121   0.75
Ti468     Ti     0.3982   0.0359   0.7837
Ti469     Ti     0.2859   0.1482   0.7163
Er470     Er     0.5   0.379   0.621
Ti471     Ti     0.5337   0.4641   0.6482
Ti472     Ti     0.4663   0.3518   0.5359
Er473     Er     0.629   0.379   0.75
Ti474     Ti     0.7141   0.3518   0.7837
Ti475     Ti     0.6018   0.4641   0.7163
Er476     Er     0.629   0.25   0.879
Ti477     Ti     0.6018   0.2163   0.9641
Ti478     Ti     0.7141   0.2837   0.8518
He479     He     0.5297   0.1502   0.7911
He480     He     0.4589   0.1502   0.7203
He481     He     0.4002   0.2089   0.7797
He482     He     0.5297   0.5998   0.9589
He483     He     0.4703   0.5411   0.9002
He484     He     0.4002   0.5411   0.9703
He485     He     0.4589   0.5998   0.0297
He486     He     0.5411   0.4703   0.9002
He487     He     0.5297   0.4589   0.0998
He488     He     0.4703   0.4002   0.0411
He489     He     0.4589   0.5297   0.0998
He490     He     0.5411   0.4002   0.9703
He491     He     0.5998   0.5297   0.9589
Er492     Er     0.629   0.5   0.871
Ti493     Ti     0.6018   0.5337   0.7859
Ti494     Ti     0.7141   0.4663   0.8982
Er495     Er     0.5   0.629   0.871
Ti496     Ti     0.5337   0.6018   0.7859
Ti497     Ti     0.4663   0.7141   0.8982
Er498     Er     0.371   0.629   0.0
Ti499     Ti     0.3982   0.7141   0.9663
Ti500     Ti     0.2859   0.6018   0.0337
Er501     Er     0.629   0.3711   0.0
Ti502     Ti     0.7141   0.3982   0.9663
Ti503     Ti     0.6018   0.2859   0.0337
Er504     Er     0.371   0.5   0.1289
Ti505     Ti     0.2859   0.5337   0.1018
Ti506     Ti     0.3982   0.4663   0.2141
Er507     Er     0.5   0.371   0.129
Ti508     Ti     0.5337   0.2859   0.1018
Ti509     Ti     0.4663   0.3982   0.2141
He510     He     0.4002   0.4703   0.0411
He511     He     0.5998   0.4589   0.0297
He512     He     0.1502   0.2203   0.9589
He513     He     0.2797   0.3498   0.0411
He514     He     0.2203   0.2911   0.0998
He515     He     0.3498   0.2089   0.9703
He516     He     0.2911   0.1502   0.0297
He517     He     0.2203   0.1502   0.9589
He518     He     0.2797   0.2089   0.9002
He519     He     0.2089   0.2797   0.9002
Er520     Er     0.121   0.25   0.871
Ti521     Ti     0.0359   0.2837   0.8982
Ti522     Ti     0.1482   0.2163   0.7859
Er523     Er     0.25   0.121   0.871
Ti524     Ti     0.2837   0.0359   0.8982
Ti525     Ti     0.2163   0.1482   0.7859
Er526     Er     0.121   0.379   0.0
Ti527     Ti     0.0359   0.3518   0.9663
Ti528     Ti     0.1482   0.4641   0.0337
Er529     Er     0.25   0.379   0.129
Ti530     Ti     0.2163   0.4641   0.1018
Ti531     Ti     0.2837   0.3518   0.2141
Er532     Er     0.379   0.121   0.0
Ti533     Ti     0.3518   0.0359   0.9663
Ti534     Ti     0.4641   0.1482   0.0337
Er535     Er     0.379   0.25   0.129
Ti536     Ti     0.4641   0.2163   0.1018
Ti537     Ti     0.3518   0.2837   0.2141
He538     He     0.3498   0.2797   0.0411
He539     He     0.2089   0.3498   0.9703
He540     He     0.1502   0.2911   0.0297
He541     He     0.2911   0.2203   0.0998
He542     He     0.0998   0.2203   0.2911
He543     He     0.0411   0.2797   0.3498
He544     He     0.9589   0.2203   0.1502
He545     He     0.9589   0.1502   0.2203
He546     He     0.9002   0.2089   0.2797
He547     He     0.9002   0.2797   0.2089
He548     He     0.9703   0.3498   0.2089
He549     He     0.0297   0.2911   0.1502
He550     He     0.0411   0.3498   0.2797
Er551     Er     0.0   0.379   0.121
Ti552     Ti     0.9663   0.3518   0.0359
Ti553     Ti     0.0337   0.4641   0.1482
Er554     Er     0.0   0.121   0.379
Ti555     Ti     0.9663   0.0359   0.3518
Ti556     Ti     0.0337   0.1482   0.4641
Er557     Er     0.129   0.3789   0.25
Ti558     Ti     0.2141   0.3518   0.2837
Ti559     Ti     0.1018   0.4641   0.2163
Er560     Er     0.129   0.25   0.379
Ti561     Ti     0.1018   0.2163   0.4641
Ti562     Ti     0.2141   0.2837   0.3518
Er563     Er     0.871   0.121   0.25
Ti564     Ti     0.8982   0.0359   0.2837
Ti565     Ti     0.7859   0.1482   0.2163
Er566     Er     0.871   0.25   0.121
Ti567     Ti     0.8982   0.2837   0.0359
Ti568     Ti     0.7859   0.2163   0.1482
He569     He     0.0998   0.2911   0.2203
He570     He     0.9703   0.2089   0.3498
He571     He     0.0297   0.1502   0.2911
Ce572     Ce     0.1248   0.6941   0.1941
He573     He     0.2911   0.0998   0.2203
He574     He     0.3498   0.0411   0.2797
He575     He     0.1502   0.9589   0.2203
He576     He     0.2203   0.9589   0.1502
He577     He     0.2797   0.9002   0.2089
He578     He     0.2089   0.9703   0.3498
He579     He     0.1502   0.0297   0.2911
He580     He     0.3498   0.9703   0.2089
He581     He     0.2911   0.0297   0.1502
He582     He     0.2089   0.9002   0.2797
He583     He     0.2797   0.0411   0.3498
Er584     Er     0.121   0.0   0.379
Ti585     Ti     0.0359   0.9663   0.3518
Ti586     Ti     0.1482   0.0337   0.4641
Er587     Er     0.379   0.0   0.121
Ti588     Ti     0.3518   0.9663   0.0359
Ti589     Ti     0.4641   0.0337   0.1482
Er590     Er     0.379   0.129   0.25
Ti591     Ti     0.4641   0.1018   0.2163
Ti592     Ti     0.3518   0.2141   0.2837
Er593     Er     0.25   0.129   0.3789
Ti594     Ti     0.2837   0.2141   0.3518
Ti595     Ti     0.2163   0.1018   0.4641
Er596     Er     0.25   0.871   0.121
Ti597     Ti     0.2837   0.8982   0.0359
Ti598     Ti     0.2163   0.7859   0.1482
Er599     Er     0.121   0.871   0.25
Ti600     Ti     0.1482   0.7859   0.2163
Ti601     Ti     0.0359   0.8982   0.2837
He602     He     0.2203   0.0998   0.2911
Ce603     Ce     0.1941   0.6252   0.0559
He604     He     0.2911   0.5998   0.7203
He605     He     0.3498   0.5411   0.7797
He606     He     0.1502   0.4589   0.7203
He607     He     0.2797   0.4002   0.7089
He608     He     0.2203   0.4589   0.6502
He609     He     0.3498   0.4703   0.7089
He610     He     0.2911   0.5297   0.6502
He611     He     0.2089   0.4703   0.8498
He612     He     0.2797   0.5411   0.8498
He613     He     0.2203   0.5998   0.7911
Er614     Er     0.121   0.371   0.75
Ti615     Ti     0.1482   0.2859   0.7163
Ti616     Ti     0.0359   0.3982   0.7837
Er617     Er     0.121   0.5   0.879
Ti618     Ti     0.1482   0.5337   0.9641
Ti619     Ti     0.0359   0.4663   0.8518
Er620     Er     0.379   0.5   0.621
Ti621     Ti     0.4641   0.5337   0.6482
Ti622     Ti     0.3518   0.4663   0.5359
Er623     Er     0.379   0.629   0.75
Ti624     Ti     0.4641   0.6018   0.7163
Ti625     Ti     0.3518   0.7141   0.7837
Er626     Er     0.25   0.629   0.879
Ti627     Ti     0.2163   0.6018   0.9641
Ti628     Ti     0.2837   0.7141   0.8518
Er629     Er     0.25   0.371   0.621
Ti630     Ti     0.2837   0.3982   0.5359
Ti631     Ti     0.2163   0.2859   0.6482
He632     He     0.1502   0.5297   0.7911
He633     He     0.2089   0.4002   0.7797
He634     He     0.5998   0.9589   0.5297
He635     He     0.5411   0.9002   0.4703
He636     He     0.4589   0.0297   0.5998
He637     He     0.5297   0.9589   0.5998
He638     He     0.4703   0.9002   0.5411
He639     He     0.4002   0.0411   0.4703
He640     He     0.4589   0.0998   0.5297
He641     He     0.4703   0.0411   0.4002
Er642     Er     0.629   0.871   0.5
Ti643     Ti     0.6018   0.7859   0.5337
Ti644     Ti     0.7141   0.8982   0.4663
Er645     Er     0.5   0.871   0.629
Ti646     Ti     0.5337   0.7859   0.6018
Ti647     Ti     0.4663   0.8982   0.7141
Er648     Er     0.629   0.0   0.371
Ti649     Ti     0.7141   0.9663   0.3982
Ti650     Ti     0.6018   0.0337   0.2859
Er651     Er     0.371   0.0   0.629
Ti652     Ti     0.3982   0.9663   0.7141
Ti653     Ti     0.2859   0.0337   0.6018
Er654     Er     0.371   0.129   0.5
Ti655     Ti     0.2859   0.1018   0.5337
Ti656     Ti     0.3982   0.2141   0.4663
Er657     Er     0.5   0.129   0.371
Ti658     Ti     0.5337   0.1018   0.2859
Ti659     Ti     0.4663   0.2141   0.3982
He660     He     0.4002   0.9703   0.5411
He661     He     0.5297   0.0998   0.4589
He662     He     0.5998   0.0297   0.4589
He663     He     0.5411   0.9703   0.4002
Ce664     Ce     0.1941   0.0559   0.6252
He665     He     0.3498   0.7797   0.5411
He666     He     0.2911   0.7203   0.5998
He667     He     0.2797   0.8498   0.5411
He668     He     0.1502   0.7203   0.4589
He669     He     0.3498   0.7089   0.4703
He670     He     0.2911   0.6502   0.5297
He671     He     0.2203   0.7911   0.5998
He672     He     0.1502   0.7911   0.5297
He673     He     0.2203   0.6502   0.4589
Er674     Er     0.25   0.879   0.629
Ti675     Ti     0.2163   0.9641   0.6018
Ti676     Ti     0.2837   0.8518   0.7141
Er677     Er     0.379   0.75   0.629
Ti678     Ti     0.4641   0.7163   0.6018
Ti679     Ti     0.3518   0.7837   0.7141
Er680     Er     0.25   0.621   0.3711
Ti681     Ti     0.2163   0.6482   0.2859
Ti682     Ti     0.2837   0.5359   0.3982
Er683     Er     0.121   0.879   0.5
Ti684     Ti     0.1482   0.9641   0.5337
Ti685     Ti     0.0359   0.8518   0.4663
Er686     Er     0.121   0.75   0.371
Ti687     Ti     0.0359   0.7837   0.3982
Ti688     Ti     0.1482   0.7163   0.2859
Er689     Er     0.379   0.621   0.5
Ti690     Ti     0.4641   0.6482   0.5337
Ti691     Ti     0.3518   0.5359   0.4663
He692     He     0.2797   0.7089   0.4002
He693     He     0.2089   0.8498   0.4703
He694     He     0.2089   0.7797   0.4002
He695     He     0.0998   0.4589   0.5297
He696     He     0.9703   0.5411   0.4002
He697     He     0.0297   0.5998   0.4589
He698     He     0.0411   0.4703   0.4002
He699     He     0.0998   0.5297   0.4589
He700     He     0.9703   0.4002   0.5411
He701     He     0.9589   0.5998   0.5297
He702     He     0.9002   0.5411   0.4703
He703     He     0.0297   0.4589   0.5998
He704     He     0.0411   0.4002   0.4703
Er705     Er     0.871   0.5   0.6289
Ti706     Ti     0.7859   0.5337   0.6018
Ti707     Ti     0.8982   0.4663   0.7141
Er708     Er     0.871   0.629   0.5
Ti709     Ti     0.7859   0.6018   0.5337
Ti710     Ti     0.8982   0.7141   0.4663
Er711     Er     0.0   0.371   0.629
Ti712     Ti     0.9663   0.3982   0.7141
Ti713     Ti     0.0337   0.2859   0.6018
Er714     Er     0.129   0.371   0.5
Ti715     Ti     0.1018   0.2859   0.5337
Ti716     Ti     0.2141   0.3982   0.4663
Er717     Er     0.129   0.5   0.371
Ti718     Ti     0.1018   0.5337   0.2859
Ti719     Ti     0.2141   0.4663   0.3982
Er720     Er     0.0   0.629   0.371
Ti721     Ti     0.9663   0.7141   0.3982
Ti722     Ti     0.0337   0.6018   0.2859
He723     He     0.9002   0.4703   0.5411
He724     He     0.9589   0.5297   0.5998
Ce725     Ce     0.1248   0.1941   0.6941
Ce726     Ce     0.6941   0.1248   0.1941
Ce727     Ce     0.9441   0.8059   0.3748
Ce728     Ce     0.8059   0.8059   0.3752
Ce729     Ce     0.9441   0.3748   0.8059
Ce730     Ce     0.1941   0.5559   0.1251
Ce731     Ce     0.3752   0.8059   0.8059
Ce732     Ce     0.6941   0.6252   0.5559
Ce733     Ce     0.5559   0.6941   0.6252
Ce734     Ce     0.9441   0.9441   0.3752
Ce735     Ce     0.8059   0.3752   0.8059
Ce736     Ce     0.9441   0.3752   0.9441
Ce737     Ce     0.3752   0.9441   0.9441
Ce738     Ce     0.6941   0.1941   0.1248
Ce739     Ce     0.6252   0.6941   0.5559
Ce740     Ce     0.4441   0.3748   0.3059
Ce741     Ce     0.6941   0.5559   0.6252
Ce742     Ce     0.5559   0.6252   0.6941
Ce743     Ce     0.6252   0.5559   0.6941
Ce744     Ce     0.3059   0.8059   0.8752
Ce745     Ce     0.1941   0.6248   0.1941
Ce746     Ce     0.6941   0.1252   0.0559
Ce747     Ce     0.1252   0.0559   0.6941
Ce748     Ce     0.0559   0.6252   0.1941
Ce749     Ce     0.8752   0.8059   0.3059
Ce750     Ce     0.1941   0.6941   0.1248
Ce751     Ce     0.8059   0.3059   0.8752
Ce752     Ce     0.6252   0.1941   0.0559
Ce753     Ce     0.1252   0.1941   0.5559
Ce754     Ce     0.5559   0.1252   0.1941
Ce755     Ce     0.1941   0.1941   0.6248
Ce756     Ce     0.6248   0.1941   0.1941
Ce757     Ce     0.3059   0.3059   0.3752
Ce758     Ce     0.6252   0.0559   0.1941
Ce759     Ce     0.4441   0.3752   0.4441
Ce760     Ce     0.5559   0.6248   0.5559
Ce761     Ce     0.4441   0.4441   0.3752
Ce762     Ce     0.3059   0.4441   0.3748
Ce763     Ce     0.3752   0.4441   0.4441
Ce764     Ce     0.5559   0.1941   0.1252
Ce765     Ce     0.8748   0.4441   0.8059
Ce766     Ce     0.5559   0.5559   0.6248
Ce767     Ce     0.6248   0.5559   0.5559
H768     H     0.2413   0.0087   0.4374
S769     S     0.817   0.625   0.125
S770     S     0.875   0.875   0.683
S771     S     0.875   0.683   0.875
S772     S     0.683   0.375   0.375
S773     S     0.683   0.875   0.875
S774     S     0.375   0.375   0.683
S775     S     0.375   0.683   0.375
S776     S     0.817   0.125   0.625
S777     S     0.125   0.625   0.817
S778     S     0.625   0.125   0.817
S779     S     0.125   0.817   0.625
S780     S     0.625   0.817   0.125
S781     S     0.067   0.375   0.375
S782     S     0.375   0.875   0.567
S783     S     0.125   0.433   0.625
S784     S     0.375   0.567   0.875
S785     S     0.567   0.375   0.875
S786     S     0.125   0.625   0.433
S787     S     0.375   0.183   0.875
S788     S     0.875   0.375   0.567
S789     S     0.875   0.567   0.375
S790     S     0.567   0.875   0.375
S791     S     0.875   0.875   0.067
S792     S     0.375   0.875   0.183
S793     S     0.875   0.183   0.375
S794     S     0.067   0.875   0.875
S795     S     0.375   0.375   0.067
S796     S     0.875   0.375   0.183
S797     S     0.183   0.375   0.875
S798     S     0.183   0.875   0.375
S799     S     0.933   0.125   0.125
S800     S     0.875   0.067   0.875
S801     S     0.125   0.125   0.933
S802     S     0.625   0.433   0.125
S803     S     0.125   0.933   0.125
S804     S     0.317   0.625   0.625
S805     S     0.625   0.625   0.933
S806     S     0.625   0.625   0.317
S807     S     0.375   0.067   0.375
S808     S     0.625   0.317   0.625
S809     S     0.317   0.125   0.125
S810     S     0.433   0.625   0.125
S811     S     0.625   0.933   0.625
S812     S     0.933   0.625   0.625
S813     S     0.125   0.125   0.317
S814     S     0.125   0.317   0.125
S815     S     0.625   0.125   0.433
S816     S     0.433   0.125   0.625
loop_
_geom_bond_atom_site_label_1
_geom_bond_atom_site_label_2
_geom_bond_distance
_geom_bond_site_symmetry_2
_ccdc_geom_bond_type
H1     H79    10.18   1_556     S
H1     H30    10.18   1_565     S
H1     Ti298    10.099   .     S
H1     Ti310    10.099   .     S
H1     He288    10.188   1_556     S
H1     He312    10.188   1_565     S
H2     H93    10.18   1_655     S
H2     H89    10.18   1_655     S
H2     Ti399    10.099   .     S
H2     Ti411    10.099   .     S
H2     He417    10.188   .     S
H2     He390    10.188   .     S
H3     H40    10.18   1_565     S
H3     H4    10.18   .     S
H3     Ti265    10.099   .     S
H3     Ti274    10.099   .     S
H3     He280    10.188   1_565     S
H3     He252    10.188   .     S
H4     H40    10.18   1_565     S
H4     Ti649    10.099   .     S
H4     Ti644    10.099   .     S
H4     He634    10.188   .     S
H4     He662    10.188   1_565     S
H5     H51    10.18   1_556     S
H5     H26    10.18   .     S
H5     Ti502    10.099   .     S
H5     Ti494    10.099   .     S
H5     He511    10.188   1_556     S
H5     He491    10.188   .     S
H6     H21    10.18   .     S
H6     H23    10.18   .     S
H6     Ti239    10.099   .     S
H6     Ti246    10.099   .     S
H6     He226    10.188   .     S
H6     He248    10.188   .     S
H7     H81    10.18   1_565     S
H7     H10    10.18   1_655     S
H7     Ti307    10.099   .     S
H7     Ti301    10.099   .     S
H7     He284    10.188   1_655     S
H7     He286    10.188   1_565     S
H8     H94    10.18   1_556     S
H8     H73    10.18   1_456     S
H8     Ti336    10.099   .     S
H8     Ti338    10.099   .     S
H8     He342    10.188   1_455     S
H8     He317    10.188   .     S
H9     H25    10.18   .     S
H9     H56    10.18   .     S
H9     Ti278    10.099   .     S
H9     Ti271    10.099   .     S
H9     He258    10.188   .     S
H9     He257    10.188   .     S
H10     H81    10.18   1_465     S
H10     H7    10.18   1_455     S
H10     Ti601    10.099   .     S
H10     Ti585    10.099   .     S
H10     He579    10.188   1_565     S
H10     He575    10.188   .     S
H11     H32    10.18   .     S
H11     H71    10.18   .     S
H11     Ti339    10.099   .     S
H11     Ti332    10.099   .     S
H11     He319    10.188   .     S
H11     He316    10.188   .     S
H12     H13    10.18   .     S
H12     H14    10.18   .     S
H12     Ti234    10.099   .     S
H12     Ti231    10.099   .     S
H12     He222    10.188   .     S
H12     He223    10.188   .     S
H13     H14    10.18   .     S
H13     Ti324    10.099   .     S
H13     Ti327    10.099   .     S
H13     He315    10.188   .     S
H13     He318    10.188   .     S
H14     Ti266    10.099   .     S
H14     Ti263    10.099   .     S
H14     He256    10.188   .     S
H14     He254    10.188   .     S
H15     H92    10.18   1_655     S
H15     H70    10.18   1_645     S
H15     Ti277    10.099   .     S
H15     Ti275    10.099   .     S
H15     He281    10.188   1_545     S
H15     He255    10.188   .     S
H16     H86    10.18   1_565     S
H16     H66    10.18   1_564     S
H16     Ti243    10.099   .     S
H16     Ti245    10.099   .     S
H16     He225    10.188   1_554     S
H16     He249    10.188   .     S
H17     H29    10.18   .     S
H17     H59    10.18   1_655     S
H17     Ti329    10.099   .     S
H17     Ti326    10.099   .     S
H17     He320    10.188   1_655     S
H17     He314    10.188   .     S
H18     H36    10.18   1_565     S
H18     H72    10.18   .     S
H18     Ti268    10.099   .     S
H18     Ti262    10.099   .     S
H18     He253    10.188   .     S
H18     He259    10.188   1_565     S
H19     H47    10.18   1_556     S
H19     H39    10.18   .     S
H19     Ti230    10.099   .     S
H19     Ti242    10.099   .     S
H19     He220    10.188   .     S
H19     He224    10.188   1_556     S
H20     H74    10.18   .     S
H20     H58    10.18   .     S
H20     Ti631    10.099   .     S
H20     Ti615    10.099   .     S
H20     He633    10.188   .     S
H20     He607    10.188   .     S
H21     H23    10.18   .     S
H21     Ti400    10.099   .     S
H21     Ti403    10.099   .     S
H21     He416    10.188   .     S
H21     He394    10.188   .     S
H22     H768    10.18   1_565     S
H22     H67    10.18   1_565     S
H22     Ti684    10.099   .     S
H22     Ti675    10.099   .     S
H22     He667    10.188   .     S
H22     He693    10.188   .     S
H23     Ti383    10.099   .     S
H23     Ti380    10.099   .     S
H23     He386    10.188   .     S
H23     He359    10.188   .     S
H24     H62    10.18   1_554     S
H24     H46    10.18   1_654     S
H24     Ti552    10.099   .     S
H24     Ti567    10.099   .     S
H24     He549    10.188   1_655     S
H24     He544    10.188   .     S
H25     H56    10.18   .     S
H25     Ti478    10.099   .     S
H25     Ti474    10.099   .     S
H25     He457    10.188   .     S
H25     He460    10.188   .     S
H26     H51    10.18   1_556     S
H26     Ti233    10.099   .     S
H26     Ti236    10.099   .     S
H26     He221    10.188   .     S
H26     He227    10.188   1_556     S
H27     H37    10.18   .     S
H27     H55    10.18   .     S
H27     Ti405    10.099   .     S
H27     Ti402    10.099   .     S
H27     He393    10.188   .     S
H27     He391    10.188   .     S
H28     H83    10.18   .     S
H28     H43    10.18   .     S
H28     Ti506    10.099   .     S
H28     Ti509    10.099   .     S
H28     He489    10.188   .     S
H28     He487    10.188   .     S
H29     H59    10.18   1_655     S
H29     Ti721    10.099   .     S
H29     Ti710    10.099   .     S
H29     He697    10.188   1_655     S
H29     He701    10.188   .     S
H30     H1    10.18   1_545     S
H30     H79    10.18   1_546     S
H30     Ti533    10.099   .     S
H30     Ti524    10.099   .     S
H30     He516    10.188   1_556     S
H30     He517    10.188   .     S
H31     H88    10.18   1_556     S
H31     H95    10.18   1_556     S
H31     Ti477    10.099   .     S
H31     Ti465    10.099   .     S
H31     He452    10.188   .     S
H31     He459    10.188   .     S
H32     H71    10.18   .     S
H32     Ti625    10.099   .     S
H32     Ti628    10.099   .     S
H32     He604    10.188   .     S
H32     He613    10.188   .     S
H33     H82    10.18   1_556     S
H33     H75    10.18   1_556     S
H33     Ti618    10.099   .     S
H33     Ti627    10.099   .     S
H33     He612    10.188   .     S
H33     He611    10.188   .     S
H34     H49    10.18   .     S
H34     H80    10.18   .     S
H34     Ti716    10.099   .     S
H34     Ti719    10.099   .     S
H34     He695    10.188   .     S
H34     He699    10.188   .     S
H35     H57    10.18   .     S
H35     H41    10.18   1_655     S
H35     Ti335    10.099   .     S
H35     Ti323    10.099   .     S
H35     He341    10.188   1_655     S
H35     He313    10.188   .     S
H36     H18    10.18   1_545     S
H36     H72    10.18   1_545     S
H36     Ti468    10.099   .     S
H36     Ti466    10.099   .     S
H36     He480    10.188   .     S
H36     He479    10.188   .     S
H37     H55    10.18   .     S
H37     Ti709    10.099   .     S
H37     Ti706    10.099   .     S
H37     He723    10.188   .     S
H37     He702    10.188   .     S
H38     H54    10.18   .     S
H38     H52    10.18   .     S
H38     Ti562    10.099   .     S
H38     Ti558    10.099   .     S
H38     He569    10.188   .     S
H38     He542    10.188   .     S
H39     H47    10.18   1_556     S
H39     Ti499    10.099   .     S
H39     Ti497    10.099   .     S
H39     He485    10.188   1_556     S
H39     He482    10.188   .     S
H40     H3    10.18   1_545     S
H40     H4    10.18   1_545     S
H40     Ti432    10.099   .     S
H40     Ti429    10.099   .     S
H40     He450    10.188   .     S
H40     He445    10.188   .     S
H41     H57    10.18   1_455     S
H41     H35    10.18   1_455     S
H41     Ti616    10.099   .     S
H41     Ti619    10.099   .     S
H41     He632    10.188   .     S
H41     He606    10.188   .     S
H42     H64    10.18   .     S
H42     H45    10.18   .     S
H42     Ti681    10.099   .     S
H42     Ti688    10.099   .     S
H42     He692    10.188   .     S
H42     He694    10.188   .     S
H43     H83    10.18   .     S
H43     Ti406    10.099   .     S
H43     Ti409    10.099   .     S
H43     He396    10.188   .     S
H43     He392    10.188   .     S
H44     H53    10.18   .     S
H44     H48    10.18   .     S
H44     Ti434    10.099   .     S
H44     Ti438    10.099   .     S
H44     He449    10.188   .     S
H44     He424    10.188   .     S
H45     H64    10.18   .     S
H45     Ti371    10.099   .     S
H45     Ti367    10.099   .     S
H45     He384    10.188   .     S
H45     He362    10.188   .     S
H46     H62    10.18   1_455     S
H46     H24    10.18   1_456     S
H46     Ti527    10.099   .     S
H46     Ti521    10.099   .     S
H46     He540    10.188   1_556     S
H46     He512    10.188   .     S
H47     H39    10.18   1_554     S
H47     H19    10.18   1_554     S
H47     Ti368    10.099   .     S
H47     Ti374    10.099   .     S
H47     He361    10.188   .     S
H47     He365    10.188   .     S
H48     H53    10.18   .     S
H48     Ti463    10.099   .     S
H48     Ti472    10.099   .     S
H48     He453    10.188   .     S
H48     He455    10.188   .     S
H49     H80    10.18   .     S
H49     Ti682    10.099   .     S
H49     Ti691    10.099   .     S
H49     He670    10.188   .     S
H49     He673    10.188   .     S
H50     H85    10.18   .     S
H50     H84    10.18   .     S
H50     Ti382    10.099   .     S
H50     Ti376    10.099   .     S
H50     He360    10.188   .     S
H50     He387    10.188   .     S
H51     H26    10.18   1_554     S
H51     H5    10.18   1_554     S
H51     Ti414    10.099   .     S
H51     Ti412    10.099   .     S
H51     He418    10.188   .     S
H51     He397    10.188   .     S
H52     H54    10.18   .     S
H52     Ti531    10.099   .     S
H52     Ti537    10.099   .     S
H52     He541    10.188   .     S
H52     He514    10.188   .     S
H53     Ti656    10.099   .     S
H53     Ti659    10.099   .     S
H53     He640    10.188   .     S
H53     He661    10.188   .     S
H54     Ti592    10.099   .     S
H54     Ti594    10.099   .     S
H54     He602    10.188   .     S
H54     He573    10.188   .     S
H55     Ti443    10.099   .     S
H55     Ti437    10.099   .     S
H55     He448    10.188   .     S
H55     He422    10.188   .     S
H56     Ti444    10.099   .     S
H56     Ti441    10.099   .     S
H56     He446    10.188   .     S
H56     He421    10.188   .     S
H57     H41    10.18   1_655     S
H57     Ti712    10.099   .     S
H57     Ti707    10.099   .     S
H57     He703    10.188   1_655     S
H57     He724    10.188   .     S
H58     H74    10.18   .     S
H58     Ti469    10.099   .     S
H58     Ti462    10.099   .     S
H58     He458    10.188   .     S
H58     He481    10.188   .     S
H59     H29    10.18   1_455     S
H59     H17    10.18   1_455     S
H59     Ti685    10.099   .     S
H59     Ti687    10.099   .     S
H59     He668    10.188   .     S
H59     He672    10.188   .     S
H60     H91    10.18   1_565     S
H60     H87    10.18   1_565     S
H60     Ti379    10.099   .     S
H60     Ti373    10.099   .     S
H60     He385    10.188   .     S
H60     He364    10.188   .     S
H61     H65    10.18   .     S
H61     H63    10.18   .     S
H61     Ti415    10.099   .     S
H61     Ti408    10.099   .     S
H61     He395    10.188   .     S
H61     He419    10.188   .     S
H62     H46    10.18   1_655     S
H62     H24    10.18   1_556     S
H62     Ti295    10.099   .     S
H62     Ti304    10.099   .     S
H62     He289    10.188   1_655     S
H62     He283    10.188   1_556     S
H63     H65    10.18   .     S
H63     Ti435    10.099   .     S
H63     Ti428    10.099   .     S
H63     He425    10.188   .     S
H63     He423    10.188   .     S
H64     Ti598    10.099   .     S
H64     Ti600    10.099   .     S
H64     He577    10.188   .     S
H64     He582    10.188   .     S
H65     Ti565    10.099   .     S
H65     Ti568    10.099   .     S
H65     He547    10.188   .     S
H65     He546    10.188   .     S
H66     H86    10.18   1_556     S
H66     H16    10.18   1_546     S
H66     Ti269    10.099   .     S
H66     Ti272    10.099   .     S
H66     He260    10.188   1_545     S
H66     He279    10.188   .     S
H67     H22    10.18   1_545     S
H67     H768    10.18   .     S
H67     Ti653    10.099   .     S
H67     Ti655    10.099   .     S
H67     He660    10.188   1_545     S
H67     He639    10.188   .     S
H68     H77    10.18   .     S
H68     H76    10.18   .     S
H68     Ti621    10.099   .     S
H68     Ti624    10.099   .     S
H68     He605    10.188   .     S
H68     He609    10.188   .     S
H69     H90    10.18   1_655     S
H69     H78    10.18   1_655     S
H69     Ti431    10.099   .     S
H69     Ti440    10.099   .     S
H69     He447    10.188   .     S
H69     He426    10.188   .     S
H70     H92    10.18   1_565     S
H70     H15    10.18   1_465     S
H70     Ti330    10.099   .     S
H70     Ti333    10.099   .     S
H70     He321    10.188   1_455     S
H70     He340    10.188   .     S
H71     Ti679    10.099   .     S
H71     Ti676    10.099   .     S
H71     He666    10.188   .     S
H71     He671    10.188   .     S
H72     H36    10.18   1_565     S
H72     Ti652    10.099   .     S
H72     Ti647    10.099   .     S
H72     He636    10.188   1_565     S
H72     He637    10.188   .     S
H73     H94    10.18   1_655     S
H73     H8    10.18   1_654     S
H73     Ti237    10.099   .     S
H73     Ti240    10.099   .     S
H73     He228    10.188   1_554     S
H73     He247    10.188   .     S
H74     Ti522    10.099   .     S
H74     Ti525    10.099   .     S
H74     He518    10.188   .     S
H74     He519    10.188   .     S
H75     H33    10.18   1_554     S
H75     H82    10.18   .     S
H75     Ti500    10.099   .     S
H75     Ti505    10.099   .     S
H75     He510    10.188   .     S
H75     He484    10.188   1_554     S
H76     H77    10.18   .     S
H76     Ti475    10.099   .     S
H76     Ti471    10.099   .     S
H76     He456    10.188   .     S
H76     He454    10.188   .     S
H77     Ti493    10.099   .     S
H77     Ti496    10.099   .     S
H77     He486    10.188   .     S
H77     He483    10.188   .     S
H78     H90    10.18   .     S
H78     H69    10.18   1_455     S
H78     Ti556    10.099   .     S
H78     Ti561    10.099   .     S
H78     He570    10.188   1_455     S
H78     He543    10.188   .     S
H79     H1    10.18   1_554     S
H79     H30    10.18   1_564     S
H79     Ti597    10.099   .     S
H79     Ti588    10.099   .     S
H79     He581    10.188   1_565     S
H79     He576    10.188   .     S
H80     Ti630    10.099   .     S
H80     Ti622    10.099   .     S
H80     He608    10.188   .     S
H80     He610    10.188   .     S
H81     H10    10.18   1_645     S
H81     H7    10.18   1_545     S
H81     Ti555    10.099   .     S
H81     Ti564    10.099   .     S
H81     He571    10.188   1_655     S
H81     He545    10.188   .     S
H82     H33    10.18   1_554     S
H82     Ti530    10.099   .     S
H82     Ti528    10.099   .     S
H82     He513    10.188   .     S
H82     He539    10.188   1_554     S
H83     Ti370    10.099   .     S
H83     Ti377    10.099   .     S
H83     He363    10.188   .     S
H83     He388    10.188   .     S
H84     H85    10.18   .     S
H84     Ti678    10.099   .     S
H84     Ti690    10.099   .     S
H84     He669    10.188   .     S
H84     He665    10.188   .     S
H85     Ti643    10.099   .     S
H85     Ti646    10.099   .     S
H85     He635    10.188   .     S
H85     He638    10.188   .     S
H86     H16    10.18   1_545     S
H86     H66    10.18   1_554     S
H86     Ti302    10.099   .     S
H86     Ti305    10.099   .     S
H86     He293    10.188   1_545     S
H86     He287    10.188   1_554     S
H87     H60    10.18   1_545     S
H87     H91    10.18   .     S
H87     Ti589    10.099   .     S
H87     Ti591    10.099   .     S
H87     He574    10.188   .     S
H87     He580    10.188   1_545     S
H88     H31    10.18   1_554     S
H88     H95    10.18   .     S
H88     Ti503    10.099   .     S
H88     Ti508    10.099   .     S
H88     He490    10.188   1_554     S
H88     He488    10.188   .     S
H89     H93    10.18   .     S
H89     H2    10.18   1_455     S
H89     Ti722    10.099   .     S
H89     Ti718    10.099   .     S
H89     He696    10.188   1_455     S
H89     He698    10.188   .     S
H90     H69    10.18   1_455     S
H90     Ti713    10.099   .     S
H90     Ti715    10.099   .     S
H90     He700    10.188   1_455     S
H90     He704    10.188   .     S
H91     H60    10.18   1_545     S
H91     Ti650    10.099   .     S
H91     Ti658    10.099   .     S
H91     He663    10.188   1_545     S
H91     He641    10.188   .     S
H92     H15    10.18   1_455     S
H92     H70    10.18   1_545     S
H92     Ti296    10.099   .     S
H92     Ti299    10.099   .     S
H92     He292    10.188   1_455     S
H92     He290    10.188   1_545     S
H93     H2    10.18   1_455     S
H93     Ti553    10.099   .     S
H93     Ti559    10.099   .     S
H93     He548    10.188   1_455     S
H93     He550    10.188   .     S
H94     H73    10.18   1_455     S
H94     H8    10.18   1_554     S
H94     Ti308    10.099   .     S
H94     Ti311    10.099   .     S
H94     He285    10.188   1_455     S
H94     He291    10.188   1_554     S
H95     H31    10.18   1_554     S
H95     Ti536    10.099   .     S
H95     Ti534    10.099   .     S
H95     He538    10.188   .     S
H95     He515    10.188   1_554     S
V96     S803    10.16   .     S
V96     Er599    9.985   .     S
V96     Er306    9.985   .     S
V96     Ti600    10.12   .     S
V96     Ti308    10.12   .     S
V96     V97    9.881   .     S
V97     S803    10.16   .     S
V97     Er309    9.985   .     S
V97     Er596    9.985   .     S
V97     Ti311    10.12   .     S
V97     Ti598    10.12   .     S
V98     S811    10.16   .     S
V98     Er261    9.985   .     S
V98     Er645    9.985   .     S
V98     Ti263    10.12   .     S
V98     Ti646    10.12   .     S
V98     V99    9.881   .     S
V99     S811    10.16   .     S
V99     Er264    9.985   .     S
V99     Er642    9.985   .     S
V99     Ti266    10.12   .     S
V99     Ti643    10.12   .     S
V100     S805    10.16   .     S
V100     Er232    9.985   .     S
V100     Er492    9.985   .     S
V100     Ti234    10.12   .     S
V100     Ti493    10.12   .     S
V100     V101    9.881   .     S
V101     S805    10.16   .     S
V101     Er229    9.985   .     S
V101     Er495    9.985   .     S
V101     Ti231    10.12   .     S
V101     Ti496    10.12   .     S
V102     S774    10.16   .     S
V102     Er470    9.985   .     S
V102     Er620    9.985   .     S
V102     Ti472    10.12   .     S
V102     Ti622    10.12   .     S
V102     V103    9.881   .     S
V103     S774    10.16   .     S
V103     Er461    9.985   .     S
V103     Er629    9.985   .     S
V103     Ti463    10.12   .     S
V103     Ti630    10.12   .     S
V104     S799    10.16   .     S
V104     Er563    9.985   .     S
V104     Er300    9.985   .     S
V104     Ti565    10.12   .     S
V104     Ti302    10.12   .     S
V104     V105    9.881   .     S
V105     S799    10.16   .     S
V105     Er566    9.985   .     S
V105     Er303    9.985   .     S
V105     Ti568    10.12   .     S
V105     Ti305    10.12   .     S
V106     S795    10.16   .     S
V106     Er507    9.985   .     S
V106     Er535    9.985   .     S
V106     Ti509    10.12   .     S
V106     Ti537    10.12   .     S
V106     V107    9.881   .     S
V107     S795    10.16   .     S
V107     Er504    9.985   .     S
V107     Er529    9.985   .     S
V107     Ti506    10.12   .     S
V107     Ti531    10.12   .     S
V108     S790    10.16   .     S
V108     Er378    9.985   .     S
V108     Er648    9.985   1_565     S
V108     Ti380    10.12   .     S
V108     Ti649    10.12   .     S
V108     V109    9.881   .     S
V109     S790    10.16   .     S
V109     Er642    9.985   .     S
V109     Er381    9.985   .     S
V109     Ti644    10.12   .     S
V109     Ti383    10.12   .     S
V110     S809    10.16   .     S
V110     Er535    9.985   .     S
V110     Er590    9.985   .     S
V110     Ti536    10.12   .     S
V110     Ti591    10.12   .     S
V110     V111    9.881   .     S
V111     S809    10.16   .     S
V111     Er532    9.985   .     S
V111     Er587    9.985   .     S
V111     Ti534    10.12   .     S
V111     Ti589    10.12   .     S
V112     S808    10.16   .     S
V112     Er470    9.985   .     S
V112     Er436    9.985   .     S
V112     Ti471    10.12   .     S
V112     Ti437    10.12   .     S
V112     V113    9.881   .     S
V113     S808    10.16   .     S
V113     Er473    9.985   .     S
V113     Er442    9.985   .     S
V113     Ti475    10.12   .     S
V113     Ti443    10.12   .     S
V114     S810    10.16   .     S
V114     Er369    9.985   .     S
V114     Er504    9.985   .     S
V114     Ti371    10.12   .     S
V114     Ti505    10.12   .     S
V114     V115    9.881   .     S
V115     S810    10.16   .     S
V115     Er498    9.985   .     S
V115     Er366    9.985   .     S
V115     Ti500    10.12   .     S
V115     Ti367    10.12   .     S
V116     S770    10.16   .     S
V116     Er328    9.985   1_655     S
V116     Er273    9.985   1_565     S
V116     Ti329    10.12   .     S
V116     Ti274    10.12   .     S
V116     V117    9.881   .     S
V117     S770    10.16   .     S
V117     Er264    9.985   .     S
V117     Er325    9.985   .     S
V117     Ti265    10.12   .     S
V117     Ti326    10.12   .     S
V118     S806    10.16   .     S
V118     Er404    9.985   .     S
V118     Er375    9.985   .     S
V118     Ti405    10.12   .     S
V118     Ti376    10.12   .     S
V118     V119    9.881   .     S
V119     S806    10.16   .     S
V119     Er401    9.985   .     S
V119     Er381    9.985   .     S
V119     Ti402    10.12   .     S
V119     Ti382    10.12   .     S
V120     S793    10.16   .     S
V120     Er430    9.985   .     S
V120     Er554    9.985   1_655     S
V120     Ti432    10.12   .     S
V120     Ti555    10.12   .     S
V120     V121    9.881   .     S
V121     S793    10.16   .     S
V121     Er563    9.985   .     S
V121     Er427    9.985   .     S
V121     Ti564    10.12   .     S
V121     Ti429    10.12   .     S
V122     S773    10.16   .     S
V122     Er267    9.985   1_565     S
V122     Er241    9.985   1_556     S
V122     Ti268    10.12   .     S
V122     Ti242    10.12   .     S
V122     V123    9.881   .     S
V123     S773    10.16   .     S
V123     Er229    9.985   .     S
V123     Er261    9.985   .     S
V123     Ti230    10.12   .     S
V123     Ti262    10.12   .     S
V124     S792    10.16   .     S
V124     Er372    9.985   .     S
V124     Er587    9.985   1_565     S
V124     Ti374    10.12   .     S
V124     Ti588    10.12   .     S
V124     V125    9.881   .     S
V125     S792    10.16   .     S
V125     Er596    9.985   .     S
V125     Er366    9.985   .     S
V125     Ti597    10.12   .     S
V125     Ti368    10.12   .     S
V126     S789    10.16   .     S
V126     Er398    9.985   .     S
V126     Er720    9.985   1_655     S
V126     Ti400    10.12   .     S
V126     Ti721    10.12   .     S
V126     V127    9.881   .     S
V127     S789    10.16   .     S
V127     Er708    9.985   .     S
V127     Er401    9.985   .     S
V127     Ti710    10.12   .     S
V127     Ti403    10.12   .     S
V128     S771    10.16   .     S
V128     Er334    9.985   1_655     S
V128     Er235    9.985   1_556     S
V128     Ti335    10.12   .     S
V128     Ti236    10.12   .     S
V128     V129    9.881   .     S
V129     S771    10.16   .     S
V129     Er232    9.985   .     S
V129     Er322    9.985   .     S
V129     Ti233    10.12   .     S
V129     Ti323    10.12   .     S
V130     S782    10.16   .     S
V130     Er645    9.985   .     S
V130     Er677    9.985   .     S
V130     Ti647    10.12   .     S
V130     Ti679    10.12   .     S
V130     V131    9.881   .     S
V131     S782    10.16   .     S
V131     Er674    9.985   .     S
V131     Er651    9.985   1_565     S
V131     Ti676    10.12   .     S
V131     Ti652    10.12   .     S
V132     S785    10.16   .     S
V132     Er492    9.985   .     S
V132     Er473    9.985   .     S
V132     Ti494    10.12   .     S
V132     Ti474    10.12   .     S
V132     V133    9.881   .     S
V133     S785    10.16   .     S
V133     Er476    9.985   .     S
V133     Er501    9.985   1_556     S
V133     Ti478    10.12   .     S
V133     Ti502    10.12   .     S
V134     S788    10.16   .     S
V134     Er439    9.985   .     S
V134     Er711    9.985   1_655     S
V134     Ti441    10.12   .     S
V134     Ti712    10.12   .     S
V134     V135    9.881   .     S
V135     S788    10.16   .     S
V135     Er705    9.985   .     S
V135     Er442    9.985   .     S
V135     Ti707    10.12   .     S
V135     Ti444    10.12   .     S
V136     S769    10.16   .     S
V136     Er235    9.985   .     S
V136     Er410    9.985   .     S
V136     Ti237    10.12   .     S
V136     Ti411    10.12   .     S
V136     V137    9.881   .     S
V137     S769    10.16   .     S
V137     Er398    9.985   .     S
V137     Er238    9.985   .     S
V137     Ti399    10.12   .     S
V137     Ti240    10.12   .     S
V138     S783    10.16   .     S
V138     Er714    9.985   .     S
V138     Er629    9.985   .     S
V138     Ti715    10.12   .     S
V138     Ti631    10.12   .     S
V138     V139    9.881   .     S
V139     S783    10.16   .     S
V139     Er711    9.985   .     S
V139     Er614    9.985   .     S
V139     Ti713    10.12   .     S
V139     Ti615    10.12   .     S
V140     S802    10.16   .     S
V140     Er407    9.985   .     S
V140     Er507    9.985   .     S
V140     Ti408    10.12   .     S
V140     Ti508    10.12   .     S
V140     V141    9.881   .     S
V141     S802    10.16   .     S
V141     Er501    9.985   .     S
V141     Er413    9.985   .     S
V141     Ti503    10.12   .     S
V141     Ti415    10.12   .     S
V142     S779    10.16   .     S
V142     Er328    9.985   .     S
V142     Er683    9.985   .     S
V142     Ti330    10.12   .     S
V142     Ti684    10.12   .     S
V142     V143    9.881   .     S
V143     S779    10.16   .     S
V143     Er674    9.985   .     S
V143     Er331    9.985   .     S
V143     Ti675    10.12   .     S
V143     Ti333    10.12   .     S
V144     S815    10.16   .     S
V144     Er433    9.985   .     S
V144     Er657    9.985   .     S
V144     Ti435    10.12   .     S
V144     Ti658    10.12   .     S
V144     V145    9.881   .     S
V145     S815    10.16   .     S
V145     Er648    9.985   .     S
V145     Er427    9.985   .     S
V145     Ti650    10.12   .     S
V145     Ti428    10.12   .     S
V146     S778    10.16   .     S
V146     Er267    9.985   .     S
V146     Er464    9.985   .     S
V146     Ti269    10.12   .     S
V146     Ti465    10.12   .     S
V146     V147    9.881   .     S
V147     S778    10.16   .     S
V147     Er476    9.985   .     S
V147     Er270    9.985   .     S
V147     Ti477    10.12   .     S
V147     Ti272    10.12   .     S
V148     S781    10.16   .     S
V148     Er557    9.985   .     S
V148     Er717    9.985   .     S
V148     Ti558    10.12   .     S
V148     Ti719    10.12   .     S
V148     V149    9.881   .     S
V149     S781    10.16   .     S
V149     Er560    9.985   .     S
V149     Er714    9.985   .     S
V149     Ti562    10.12   .     S
V149     Ti716    10.12   .     S
V150     S812    10.16   .     S
V150     Er708    9.985   .     S
V150     Er325    9.985   .     S
V150     Ti709    10.12   .     S
V150     Ti327    10.12   .     S
V150     V151    9.881   .     S
V151     S812    10.16   .     S
V151     Er322    9.985   .     S
V151     Er705    9.985   .     S
V151     Ti324    10.12   .     S
V151     Ti706    10.12   .     S
V152     S807    10.16   .     S
V152     Er593    9.985   .     S
V152     Er654    9.985   .     S
V152     Ti594    10.12   .     S
V152     Ti656    10.12   .     S
V152     V153    9.881   .     S
V153     S807    10.16   .     S
V153     Er657    9.985   .     S
V153     Er590    9.985   .     S
V153     Ti659    10.12   .     S
V153     Ti592    10.12   .     S
V154     S787    10.16   .     S
V154     Er464    9.985   .     S
V154     Er532    9.985   1_556     S
V154     Ti466    10.12   .     S
V154     Ti533    10.12   .     S
V154     V155    9.881   .     S
V155     S787    10.16   .     S
V155     Er523    9.985   .     S
V155     Er467    9.985   .     S
V155     Ti524    10.12   .     S
V155     Ti468    10.12   .     S
V156     S796    10.16   .     S
V156     Er410    9.985   .     S
V156     Er551    9.985   1_655     S
V156     Ti412    10.12   .     S
V156     Ti552    10.12   .     S
V156     V157    9.881   .     S
V157     S796    10.16   .     S
V157     Er566    9.985   .     S
V157     Er413    9.985   .     S
V157     Ti567    10.12   .     S
V157     Ti414    10.12   .     S
V158     S794    10.16   .     S
V158     Er337    9.985   .     S
V158     Er309    9.985   1_556     S
V158     Ti339    10.12   .     S
V158     Ti310    10.12   .     S
V158     V159    9.881   .     S
V159     S794    10.16   .     S
V159     Er297    9.985   1_565     S
V159     Er331    9.985   .     S
V159     Ti298    10.12   .     S
V159     Ti332    10.12   .     S
V160     S772    10.16   .     S
V160     Er404    9.985   .     S
V160     Er436    9.985   .     S
V160     Ti406    10.12   .     S
V160     Ti438    10.12   .     S
V160     V161    9.881   .     S
V161     S772    10.16   .     S
V161     Er407    9.985   .     S
V161     Er433    9.985   .     S
V161     Ti409    10.12   .     S
V161     Ti434    10.12   .     S
V162     S800    10.16   .     S
V162     Er276    9.985   .     S
V162     Er294    9.985   1_655     S
V162     Ti278    10.12   .     S
V162     Ti295    10.12   .     S
V162     V163    9.881   .     S
V163     S800    10.16   .     S
V163     Er270    9.985   .     S
V163     Er303    9.985   1_556     S
V163     Ti271    10.12   .     S
V163     Ti304    10.12   .     S
V164     S801    10.16   .     S
V164     Er520    9.985   .     S
V164     Er294    9.985   .     S
V164     Ti522    10.12   .     S
V164     Ti296    10.12   .     S
V164     V165    9.881   .     S
V165     S801    10.16   .     S
V165     Er523    9.985   .     S
V165     Er297    9.985   .     S
V165     Ti525    10.12   .     S
V165     Ti299    10.12   .     S
V166     S791    10.16   .     S
V166     Er300    9.985   1_565     S
V166     Er244    9.985   .     S
V166     Ti301    10.12   .     S
V166     Ti246    10.12   .     S
V166     V167    9.881   .     S
V167     S791    10.16   .     S
V167     Er238    9.985   .     S
V167     Er306    9.985   1_655     S
V167     Ti239    10.12   .     S
V167     Ti307    10.12   .     S
V168     S797    10.16   .     S
V168     Er617    9.985   .     S
V168     Er526    9.985   1_556     S
V168     Ti619    10.12   .     S
V168     Ti527    10.12   .     S
V168     V169    9.881   .     S
V169     S797    10.16   .     S
V169     Er520    9.985   .     S
V169     Er614    9.985   .     S
V169     Ti521    10.12   .     S
V169     Ti616    10.12   .     S
V170     S780    10.16   .     S
V170     Er241    9.985   .     S
V170     Er372    9.985   .     S
V170     Ti243    10.12   .     S
V170     Ti373    10.12   .     S
V170     V171    9.881   .     S
V171     S780    10.16   .     S
V171     Er378    9.985   .     S
V171     Er244    9.985   .     S
V171     Ti379    10.12   .     S
V171     Ti245    10.12   .     S
V172     S784    10.16   .     S
V172     Er626    9.985   .     S
V172     Er498    9.985   1_556     S
V172     Ti628    10.12   .     S
V172     Ti499    10.12   .     S
V172     V173    9.881   .     S
V173     S784    10.16   .     S
V173     Er495    9.985   .     S
V173     Er623    9.985   .     S
V173     Ti497    10.12   .     S
V173     Ti625    10.12   .     S
V174     S775    10.16   .     S
V174     Er689    9.985   .     S
V174     Er375    9.985   .     S
V174     Ti691    10.12   .     S
V174     Ti377    10.12   .     S
V174     V175    9.881   .     S
V175     S775    10.16   .     S
V175     Er680    9.985   .     S
V175     Er369    9.985   .     S
V175     Ti682    10.12   .     S
V175     Ti370    10.12   .     S
V176     S786    10.16   .     S
V176     Er680    9.985   .     S
V176     Er717    9.985   .     S
V176     Ti681    10.12   .     S
V176     Ti718    10.12   .     S
V176     V177    9.881   .     S
V177     S786    10.16   .     S
V177     Er720    9.985   .     S
V177     Er686    9.985   .     S
V177     Ti722    10.12   .     S
V177     Ti688    10.12   .     S
V178     S804    10.16   .     S
V178     Er620    9.985   .     S
V178     Er689    9.985   .     S
V178     Ti621    10.12   .     S
V178     Ti690    10.12   .     S
V178     V179    9.881   .     S
V179     S804    10.16   .     S
V179     Er677    9.985   .     S
V179     Er623    9.985   .     S
V179     Ti678    10.12   .     S
V179     Ti624    10.12   .     S
V180     S777    10.16   .     S
V180     Er334    9.985   .     S
V180     Er617    9.985   .     S
V180     Ti336    10.12   .     S
V180     Ti618    10.12   .     S
V180     V181    9.881   .     S
V181     S777    10.16   .     S
V181     Er626    9.985   .     S
V181     Er337    9.985   .     S
V181     Ti627    10.12   .     S
V181     Ti338    10.12   .     S
V182     S798    10.16   .     S
V182     Er683    9.985   .     S
V182     Er584    9.985   1_565     S
V182     Ti685    10.12   .     S
V182     Ti585    10.12   .     S
V182     V183    9.881   .     S
V183     S798    10.16   .     S
V183     Er599    9.985   .     S
V183     Er686    9.985   .     S
V183     Ti601    10.12   .     S
V183     Ti687    10.12   .     S
V184     S814    10.16   .     S
V184     Er551    9.985   .     S
V184     Er526    9.985   .     S
V184     Ti553    10.12   .     S
V184     Ti528    10.12   .     S
V184     V185    9.881   .     S
V185     S814    10.16   .     S
V185     Er557    9.985   .     S
V185     Er529    9.985   .     S
V185     Ti559    10.12   .     S
V185     Ti530    10.12   .     S
V186     S816    10.16   .     S
V186     Er461    9.985   .     S
V186     Er654    9.985   .     S
V186     Ti462    10.12   .     S
V186     Ti655    10.12   .     S
V186     V187    9.881   .     S
V187     S816    10.16   .     S
V187     Er651    9.985   .     S
V187     Er467    9.985   .     S
V187     Ti653    10.12   .     S
V187     Ti469    10.12   .     S
V188     S776    10.16   .     S
V188     Er273    9.985   .     S
V188     Er430    9.985   .     S
V188     Ti275    10.12   .     S
V188     Ti431    10.12   .     S
V188     V189    9.881   .     S
V189     S776    10.16   .     S
V189     Er439    9.985   .     S
V189     Er276    9.985   .     S
V189     Ti440    10.12   .     S
V189     Ti277    10.12   .     S
V190     S813    10.16   .     S
V190     Er584    9.985   .     S
V190     Er554    9.985   .     S
V190     Ti586    10.12   .     S
V190     Ti556    10.12   .     S
V190     V191    9.881   .     S
V191     S813    10.16   .     S
V191     Er593    9.985   .     S
V191     Er560    9.985   .     S
V191     Ti595    10.12   .     S
V191     Ti561    10.12   .     S
Ce192     Ce762    9.837   .     S
Ce192     Ce197    9.837   .     S
Ce192     Ti506    9.826   .     S
Ce192     Ti370    9.826   .     S
Ce192     Ce740    9.88   .     S
Ce192     Ce761    9.88   .     S
Ce193     Ce212    9.837   .     S
Ce193     Ce757    9.837   .     S
Ce193     Ti716    9.826   .     S
Ce193     Ti630    9.826   .     S
Ce193     Ce763    9.88   .     S
Ce193     Ce762    9.88   .     S
Ce194     Ce755    9.837   .     S
Ce194     Ce753    9.837   .     S
Ce194     Ti595    9.826   .     S
Ce194     Ti655    9.826   .     S
Ce194     Ce664    9.88   .     S
Ce194     Ce349    9.88   .     S
Ce195     Ce730    9.837   .     S
Ce195     Ce745    9.837   .     S
Ce195     Ti559    9.826   .     S
Ce195     Ti718    9.826   .     S
Ce195     Ce207    9.88   .     S
Ce195     Ce748    9.88   .     S
Ce196     Ce740    9.837   .     S
Ce196     Ce206    9.837   .     S
Ce196     Ti537    9.826   .     S
Ce196     Ti592    9.826   .     S
Ce196     Ce757    9.88   .     S
Ce196     Ce197    9.88   .     S
Ce197     Ce762    9.837   .     S
Ce197     Ti558    9.826   .     S
Ce197     Ti531    9.826   .     S
Ce197     Ce757    9.88   .     S
Ce198     Ce218    9.837   .     S
Ce198     Ce349    9.837   .     S
Ce198     Ti431    9.826   1_455     S
Ce198     Ti556    9.826   .     S
Ce198     Ce420    9.88   .     S
Ce198     Ce753    9.88   .     S
Ce199     Ce216    9.837   .     S
Ce199     Ce213    9.837   .     S
Ce199     Ti373    9.826   1_545     S
Ce199     Ti589    9.826   .     S
Ce199     Ce758    9.88   .     S
Ce199     Ce754    9.88   .     S
Ce200     Ce357    9.837   .     S
Ce200     Ce729    9.837   .     S
Ce200     Ti521    9.826   1_655     S
Ce200     Ti295    9.826   .     S
Ce200     Ce736    9.88   .     S
Ce200     Ce356    9.88   .     S
Ce201     Ce350    9.837   .     S
Ce201     Ce736    9.837   .     S
Ce201     Ti619    9.826   1_655     S
Ce201     Ti335    9.826   .     S
Ce201     Ce765    9.88   .     S
Ce201     Ce729    9.88   .     S
Ce202     Ce345    9.837   .     S
Ce202     Ce734    9.837   .     S
Ce202     Ti685    9.826   1_655     S
Ce202     Ti329    9.826   .     S
Ce202     Ce727    9.88   .     S
Ce202     Ce344    9.88   .     S
Ce203     Ce250    9.837   .     S
Ce203     Ce737    9.837   .     S
Ce203     Ti466    9.826   1_565     S
Ce203     Ti268    9.826   .     S
Ce203     Ce451    9.88   .     S
Ce203     Ce209    9.88   .     S
Ce204     Ti524    9.826   1_565     S
Ce204     Ti298    9.826   .     S
Ce204     Ce352    9.837   .     S
Ce204     Ce451    9.837   .     S
Ce204     Ce353    9.88   .     S
Ce204     Ce737    9.88   .     S
Ce205     Ce732    9.837   .     S
Ce205     Ce739    9.837   .     S
Ce205     Ti266    9.826   .     S
Ce205     Ti327    9.826   .     S
Ce205     Ce214    9.88   .     S
Ce205     Ce215    9.88   .     S
Ce206     Ce740    9.837   .     S
Ce206     Ti659    9.826   .     S
Ce206     Ti434    9.826   .     S
Ce206     Ce759    9.88   .     S
Ce206     Ce212    9.88   .     S
Ce207     Ce217    9.837   .     S
Ce207     Ce347    9.837   .     S
Ce207     Ti411    9.826   1_455     S
Ce207     Ti553    9.826   .     S
Ce207     Ce748    9.88   .     S
Ce208     Ce744    9.837   .     S
Ce208     Ce353    9.837   .     S
Ce208     Ti368    9.826   1_556     S
Ce208     Ti499    9.826   .     S
Ce208     Ce210    9.88   .     S
Ce208     Ce250    9.88   .     S
Ce209     Ce731    9.837   .     S
Ce209     Ce210    9.837   .     S
Ce209     Ti647    9.826   .     S
Ce209     Ti262    9.826   .     S
Ce209     Ce451    9.88   .     S
Ce210     Ce731    9.837   .     S
Ce210     Ti497    9.826   .     S
Ce210     Ti230    9.826   .     S
Ce210     Ce250    9.88   .     S
Ce211     Ce747    9.837   .     S
Ce211     Ce664    9.837   .     S
Ce211     Ti525    9.826   .     S
Ce211     Ti469    9.826   .     S
Ce211     Ce755    9.88   .     S
Ce211     Ce725    9.88   .     S
Ce212     Ce757    9.837   .     S
Ce212     Ti463    9.826   .     S
Ce212     Ti656    9.826   .     S
Ce212     Ce759    9.88   .     S
Ce213     Ce216    9.837   .     S
Ce213     Ti465    9.826   1_554     S
Ce213     Ti534    9.826   .     S
Ce213     Ce752    9.88   .     S
Ce213     Ce764    9.88   .     S
Ce214     Ce733    9.837   .     S
Ce214     Ce742    9.837   .     S
Ce214     Ti231    9.826   .     S
Ce214     Ti263    9.826   .     S
Ce214     Ce215    9.88   .     S
Ce215     Ce743    9.837   .     S
Ce215     Ce741    9.837   .     S
Ce215     Ti324    9.826   .     S
Ce215     Ti234    9.826   .     S
Ce216     Ti243    9.826   1_545     S
Ce216     Ti269    9.826   1_554     S
Ce216     Ce219    9.88   .     S
Ce216     Ce746    9.88   .     S
Ce217     Ce347    9.837   .     S
Ce217     Ti237    9.826   1_455     S
Ce217     Ti336    9.826   1_554     S
Ce217     Ce251    9.88   .     S
Ce217     Ce343    9.88   .     S
Ce218     Ce349    9.837   .     S
Ce218     Ti275    9.826   1_455     S
Ce218     Ti330    9.826   1_545     S
Ce218     Ce282    9.88   .     S
Ce218     Ce747    9.88   .     S
Ce219     Ce758    9.837   .     S
Ce219     Ce726    9.837   .     S
Ce219     Ti245    9.826   1_545     S
Ce219     Ti302    9.826   .     S
Ce219     Ce746    9.88   .     S
He220     Er229    9.81   .     S
He220     He224    10.101   1_556     S
He220     S805    10.29   .     S
He220     He223    10.304   .     S
He220     He221    10.018   .     S
He221     Er232    9.81   .     S
He221     He227    10.101   1_556     S
He221     S805    10.29   .     S
He221     He222    10.304   .     S
He222     Er232    9.81   .     S
He222     He223    10.101   .     S
He222     S771    10.29   .     S
He222     He228    10.018   .     S
He223     Er229    9.81   .     S
He223     S773    10.29   .     S
He223     He225    10.018   .     S
He224     Er241    9.81   .     S
He224     He220    10.101   1_554     S
He224     H19    10.188   1_554     S
He224     S780    10.29   .     S
He224     He225    10.304   1_554     S
He224     He248    10.018   .     S
He225     Er241    9.81   1_556     S
He225     He249    10.101   1_556     S
He225     H16    10.188   1_556     S
He225     S773    10.29   .     S
He225     He224    10.304   1_556     S
He226     Er238    9.81   .     S
He226     He248    10.101   .     S
He226     S769    10.29   .     S
He226     He247    10.304   .     S
He226     He227    10.018   .     S
He227     Er235    9.81   .     S
He227     He221    10.101   1_554     S
He227     H26    10.188   1_554     S
He227     S769    10.29   .     S
He227     He228    10.304   1_554     S
He228     Er235    9.81   1_556     S
He228     He247    10.101   1_556     S
He228     H73    10.188   1_556     S
He228     S771    10.29   .     S
He228     He227    10.304   1_556     S
Er229     Ti230    9.639   .     S
Er229     Ti231    9.639   .     S
Ti230     Ti497    9.938   .     S
Ti230     Ti242    9.726   .     S
Ti231     Ti263    9.938   .     S
Ti231     Ti234    9.726   .     S
Er232     Ti233    9.639   .     S
Er232     Ti234    9.639   .     S
Ti233     Ce346    9.826   .     S
Ti233     Ti494    9.938   .     S
Ti233     Ti236    9.726   .     S
Ti234     Ti324    9.938   .     S
Er235     V128    9.985   1_554     S
Er235     Ti236    9.639   1_554     S
Er235     Ti237    9.639   .     S
Er235     He228    9.81   1_554     S
Ti236     Er235    9.639   1_556     S
Ti236     Ce350    9.826   .     S
Ti236     Ti412    9.938   1_556     S
Ti237     Ce217    9.826   1_655     S
Ti237     Ti336    9.938   1_654     S
Ti237     Ti240    9.726   .     S
Er238     Ti239    9.639   .     S
Er238     Ti240    9.639   .     S
Er238     He247    9.81   .     S
Ti239     Ce749    9.826   .     S
Ti239     Ti400    9.938   .     S
Ti239     Ti246    9.726   .     S
Ti240     Ce251    9.826   1_655     S
Ti240     Ti308    9.938   1_655     S
Er241     V122    9.985   1_554     S
Er241     Ti242    9.639   1_554     S
Er241     Ti243    9.639   .     S
Er241     He225    9.81   1_554     S
Ti242     Er241    9.639   1_556     S
Ti242     Ce250    9.826   .     S
Ti242     Ti374    9.938   1_556     S
Ti243     Ce216    9.826   1_565     S
Ti243     Ti269    9.938   1_564     S
Ti243     Ti245    9.726   .     S
Er244     Ti246    9.639   .     S
Er244     Ti245    9.639   .     S
Er244     He248    9.81   .     S
Er244     He249    9.81   .     S
Ti245     Ce219    9.826   1_565     S
Ti245     Ti302    9.938   1_565     S
Ti246     Ce354    9.826   .     S
Ti246     Ti380    9.938   .     S
He247     He228    10.101   1_554     S
He247     S791    10.29   .     S
He247     He249    10.018   .     S
He248     S780    10.29   .     S
He248     He249    10.304   .     S
He249     He225    10.101   1_554     S
He249     S791    10.29   .     S
Ce250     Ce737    9.837   .     S
Ce250     Ti374    9.826   1_556     S
Ce251     Ce748    9.837   .     S
Ce251     Ce572    9.837   .     S
Ce251     Ti240    9.826   1_455     S
Ce251     Ti308    9.826   .     S
Ce251     Ce343    9.88   .     S
He252     Er264    9.81   .     S
He252     He280    10.101   1_565     S
He252     S811    10.29   .     S
He252     He256    10.304   .     S
He252     He253    10.018   .     S
He253     Er261    9.81   .     S
He253     He259    10.101   1_565     S
He253     S811    10.29   .     S
He253     He254    10.304   .     S
He254     Er261    9.81   .     S
He254     He256    10.101   .     S
He254     S773    10.29   .     S
He254     He260    10.018   .     S
He255     Er276    9.81   .     S
He255     He281    10.101   1_545     S
He255     S800    10.29   .     S
He255     He257    10.304   .     S
He255     He279    10.018   .     S
He256     Er264    9.81   .     S
He256     S770    10.29   .     S
He256     He281    10.018   .     S
He257     Er276    9.81   .     S
He257     He258    10.101   .     S
He257     S776    10.29   .     S
He257     He280    10.018   .     S
He258     Er270    9.81   .     S
He258     S778    10.29   .     S
He258     He279    10.304   .     S
He258     He259    10.018   .     S
He259     Er267    9.81   .     S
He259     He253    10.101   1_545     S
He259     H18    10.188   1_545     S
He259     S778    10.29   .     S
He259     He260    10.304   1_545     S
He260     Er267    9.81   1_565     S
He260     He279    10.101   1_565     S
He260     H66    10.188   1_565     S
He260     S773    10.29   .     S
He260     He259    10.304   1_565     S
Er261     Ti262    9.639   .     S
Er261     Ti263    9.639   .     S
Ti262     Ti647    9.938   .     S
Ti262     Ti268    9.726   .     S
Ti263     Ti266    9.726   .     S
Er264     Ti265    9.639   .     S
Er264     Ti266    9.639   .     S
Ti265     Ce355    9.826   .     S
Ti265     Ti644    9.938   .     S
Ti265     Ti274    9.726   .     S
Ti266     Ti327    9.938   .     S
Er267     V122    9.985   1_545     S
Er267     Ti268    9.639   1_545     S
Er267     Ti269    9.639   .     S
Er267     He260    9.81   1_545     S
Ti268     Er267    9.639   1_565     S
Ti268     Ti466    9.938   1_565     S
Ti269     Ce216    9.826   1_556     S
Ti269     Ti243    9.938   1_546     S
Ti269     Ti272    9.726   .     S
Er270     Ti271    9.639   .     S
Er270     Ti272    9.639   .     S
Er270     He279    9.81   .     S
Ti271     Ce751    9.826   .     S
Ti271     Ti478    9.938   .     S
Ti271     Ti278    9.726   .     S
Ti272     Ce746    9.826   1_556     S
Ti272     Ti305    9.938   1_556     S
Er273     V116    9.985   1_545     S
Er273     Ti274    9.639   1_545     S
Er273     Ti275    9.639   .     S
Er273     He280    9.81   .     S
Er273     He281    9.81   1_545     S
Ti274     Er273    9.639   1_565     S
Ti274     Ce345    9.826   .     S
Ti274     Ti432    9.938   1_565     S
Ti275     Ce218    9.826   1_655     S
Ti275     Ti330    9.938   1_645     S
Ti275     Ti277    9.726   .     S
Er276     Ti278    9.639   .     S
Er276     Ti277    9.639   .     S
Ti277     Ce282    9.826   1_655     S
Ti277     Ti296    9.938   1_655     S
Ti278     Ce357    9.826   .     S
Ti278     Ti441    9.938   .     S
He279     He260    10.101   1_545     S
He279     S800    10.29   .     S
He280     He252    10.101   1_545     S
He280     H3    10.188   1_545     S
He280     S776    10.29   .     S
He280     He281    10.304   1_545     S
He281     Er273    9.81   1_565     S
He281     He255    10.101   1_565     S
He281     H15    10.188   1_565     S
He281     S770    10.29   .     S
He281     He280    10.304   1_565     S
Ce282     Ce725    9.837   .     S
Ce282     Ce420    9.837   .     S
Ce282     Ti277    9.826   1_455     S
Ce282     Ti296    9.826   .     S
Ce282     Ce747    9.88   .     S
He283     Er303    9.81   .     S
He283     He289    10.101   1_654     S
He283     H62    10.188   1_554     S
He283     S799    10.29   .     S
He283     He287    10.304   1_554     S
He283     He286    10.018   .     S
He284     Er306    9.81   .     S
He284     He286    10.101   1_465     S
He284     H7    10.188   1_455     S
He284     S803    10.29   .     S
He284     He285    10.304   1_455     S
He284     He288    10.018   .     S
He285     Er306    9.81   1_655     S
He285     He291    10.101   1_654     S
He285     H94    10.188   1_655     S
He285     S791    10.29   .     S
He285     He284    10.304   1_655     S
He285     He293    10.018   .     S
He286     Er300    9.81   .     S
He286     He284    10.101   1_645     S
He286     H7    10.188   1_545     S
He286     S799    10.29   .     S
He286     He293    10.304   1_545     S
He287     Er303    9.81   1_556     S
He287     He293    10.101   1_546     S
He287     H86    10.188   1_556     S
He287     S800    10.29   .     S
He287     He283    10.304   1_556     S
He287     He292    10.018   .     S
He288     Er309    9.81   .     S
He288     He312    10.101   1_564     S
He288     H1    10.188   1_554     S
He288     S803    10.29   .     S
He288     He291    10.304   1_554     S
He289     Er294    9.81   .     S
He289     He283    10.101   1_456     S
He289     H62    10.188   1_455     S
He289     S801    10.29   .     S
He289     He292    10.304   1_455     S
He289     He312    10.018   .     S
He290     Er297    9.81   1_565     S
He290     He292    10.101   1_465     S
He290     H92    10.188   1_565     S
He290     S794    10.29   .     S
He290     He312    10.304   1_565     S
He290     He291    10.018   .     S
He291     Er309    9.81   1_556     S
He291     He285    10.101   1_456     S
He291     H94    10.188   1_556     S
He291     S794    10.29   .     S
He291     He288    10.304   1_556     S
He292     Er294    9.81   1_655     S
He292     He290    10.101   1_645     S
He292     H92    10.188   1_655     S
He292     S800    10.29   .     S
He292     He289    10.304   1_655     S
He293     Er300    9.81   1_565     S
He293     He287    10.101   1_564     S
He293     H86    10.188   1_565     S
He293     S791    10.29   .     S
He293     He286    10.304   1_565     S
Er294     V162    9.985   1_455     S
Er294     Ti296    9.639   .     S
Er294     Ti295    9.639   1_455     S
Er294     He292    9.81   1_455     S
Ti295     Er294    9.639   1_655     S
Ti295     Ti521    9.938   1_655     S
Ti295     Ti304    9.726   .     S
Ti296     Ti277    9.938   1_455     S
Ti296     Ti299    9.726   .     S
Er297     V159    9.985   1_545     S
Er297     Ti298    9.639   1_545     S
Er297     Ti299    9.639   .     S
Er297     He290    9.81   1_545     S
Er297     He312    9.81   .     S
Ti298     Er297    9.639   1_565     S
Ti298     Ti524    9.938   1_565     S
Ti298     Ti310    9.726   .     S
Ti299     Ce747    9.826   .     S
Ti299     Ti333    9.938   1_545     S
Er300     V166    9.985   1_545     S
Er300     Ti302    9.639   .     S
Er300     Ti301    9.639   1_545     S
Er300     He293    9.81   1_545     S
Ti301     Er300    9.639   1_565     S
Ti301     Ce351    9.826   .     S
Ti301     Ti564    9.938   1_565     S
Ti301     Ti307    9.726   .     S
Ti302     Ti245    9.938   1_545     S
Ti302     Ti305    9.726   .     S
Er303     V163    9.985   1_554     S
Er303     Ti305    9.639   .     S
Er303     Ti304    9.639   1_554     S
Er303     He287    9.81   1_554     S
Ti304     Er303    9.639   1_556     S
Ti304     Ce356    9.826   .     S
Ti304     Ti567    9.938   1_556     S
Ti305     Ce746    9.826   .     S
Ti305     Ti272    9.938   1_554     S
Er306     V167    9.985   1_455     S
Er306     Ti308    9.639   .     S
Er306     Ti307    9.639   1_455     S
Er306     He285    9.81   1_455     S
Ti307     Er306    9.639   1_655     S
Ti307     Ce348    9.826   .     S
Ti307     Ti601    9.938   1_655     S
Ti308     Ti240    9.938   1_455     S
Ti308     Ti311    9.726   .     S
Er309     V158    9.985   1_554     S
Er309     Ti311    9.639   .     S
Er309     Ti310    9.639   1_554     S
Er309     He291    9.81   1_554     S
Ti310     Er309    9.639   1_556     S
Ti310     Ce353    9.826   .     S
Ti310     Ti597    9.938   1_556     S
Ti311     Ce343    9.826   .     S
Ti311     Ti338    9.938   1_554     S
He312     He288    10.101   1_546     S
He312     H1    10.188   1_545     S
He312     S801    10.29   .     S
He312     He290    10.304   1_545     S
He313     Er322    9.81   .     S
He313     He341    10.101   1_655     S
He313     S812    10.29   .     S
He313     He318    10.304   .     S
He313     He314    10.018   .     S
He314     Er325    9.81   .     S
He314     He320    10.101   1_655     S
He314     S812    10.29   .     S
He314     He315    10.304   .     S
He315     Er325    9.81   .     S
He315     He318    10.101   .     S
He315     S770    10.29   .     S
He315     He321    10.018   .     S
He316     Er337    9.81   .     S
He316     He319    10.101   .     S
He316     S777    10.29   .     S
He316     He317    10.304   .     S
He316     He341    10.018   .     S
He317     Er337    9.81   .     S
He317     He342    10.101   1_455     S
He317     S794    10.29   .     S
He317     He340    10.018   .     S
He318     Er322    9.81   .     S
He318     S771    10.29   .     S
He318     He342    10.018   .     S
He319     Er331    9.81   .     S
He319     S779    10.29   .     S
He319     He340    10.304   .     S
He319     He320    10.018   .     S
He320     Er328    9.81   .     S
He320     He314    10.101   1_455     S
He320     H17    10.188   1_455     S
He320     S779    10.29   .     S
He320     He321    10.304   1_455     S
He321     Er328    9.81   1_655     S
He321     He340    10.101   1_655     S
He321     H70    10.188   1_655     S
He321     S770    10.29   .     S
He321     He320    10.304   1_655     S
Er322     Ti323    9.639   .     S
Er322     Ti324    9.639   .     S
Ti323     Ce765    9.826   .     S
Ti323     Ti707    9.938   .     S
Ti323     Ti335    9.726   .     S
Ti324     Ti327    9.726   .     S
Er325     Ti326    9.639   .     S
Er325     Ti327    9.639   .     S
Ti326     Ce344    9.826   .     S
Ti326     Ti710    9.938   .     S
Ti326     Ti329    9.726   .     S
Er328     V116    9.985   1_455     S
Er328     Ti329    9.639   1_455     S
Er328     Ti330    9.639   .     S
Er328     He321    9.81   1_455     S
Ti329     Er328    9.639   1_655     S
Ti329     Ti685    9.938   1_655     S
Ti330     Ce218    9.826   1_565     S
Ti330     Ti275    9.938   1_465     S
Ti330     Ti333    9.726   .     S
Er331     Ti332    9.639   .     S
Er331     Ti333    9.639   .     S
Er331     He340    9.81   .     S
Ti332     Ce352    9.826   .     S
Ti332     Ti676    9.938   .     S
Ti332     Ti339    9.726   .     S
Ti333     Ce747    9.826   1_565     S
Ti333     Ti299    9.938   1_565     S
Er334     V128    9.985   1_455     S
Er334     Ti335    9.639   1_455     S
Er334     Ti336    9.639   .     S
Er334     He341    9.81   .     S
Er334     He342    9.81   1_455     S
Ti335     Er334    9.639   1_655     S
Ti335     Ti619    9.938   1_655     S
Ti336     Ce217    9.826   1_556     S
Ti336     Ti237    9.938   1_456     S
Ti336     Ti338    9.726   .     S
Er337     Ti339    9.639   .     S
Er337     Ti338    9.639   .     S
Ti338     Ce343    9.826   1_556     S
Ti338     Ti311    9.938   1_556     S
Ti339     Ce744    9.826   .     S
Ti339     Ti628    9.938   .     S
He340     He321    10.101   1_455     S
He340     S794    10.29   .     S
He341     He313    10.101   1_455     S
He341     H35    10.188   1_455     S
He341     S777    10.29   .     S
He341     He342    10.304   1_455     S
He342     Er334    9.81   1_655     S
He342     He317    10.101   1_655     S
He342     H8    10.188   1_655     S
He342     S771    10.29   .     S
He342     He341    10.304   1_655     S
Ce343     Ce603    9.837   .     S
Ce343     Ce750    9.837   .     S
Ce343     Ti338    9.826   1_554     S
Ce344     Ce728    9.837   .     S
Ce344     Ce355    9.837   .     S
Ce344     Ti710    9.826   .     S
Ce344     Ce727    9.88   .     S
Ce345     Ce734    9.837   .     S
Ce345     Ti432    9.826   1_565     S
Ce345     Ce358    9.88   .     S
Ce345     Ce355    9.88   .     S
Ce346     Ce735    9.837   .     S
Ce346     Ce765    9.837   .     S
Ce346     Ti494    9.826   .     S
Ce346     Ce389    9.88   .     S
Ce346     Ce350    9.88   .     S
Ce347     Ti618    9.826   1_554     S
Ce347     Ti528    9.826   .     S
Ce347     Ce730    9.88   .     S
Ce347     Ce603    9.88   .     S
Ce348     Ce749    9.837   .     S
Ce348     Ce727    9.837   .     S
Ce348     Ti601    9.826   1_655     S
Ce348     Ce734    9.88   .     S
Ce348     Ce351    9.88   .     S
Ce349     Ti684    9.826   1_545     S
Ce349     Ti586    9.826   .     S
Ce349     Ce664    9.88   .     S
Ce350     Ce736    9.837   .     S
Ce350     Ti412    9.826   1_556     S
Ce350     Ce389    9.88   .     S
Ce351     Ce354    9.837   .     S
Ce351     Ce358    9.837   .     S
Ce351     Ti564    9.826   1_565     S
Ce351     Ce734    9.88   .     S
Ce352     Ti676    9.826   .     S
Ce352     Ce451    9.837   .     S
Ce352     Ce731    9.88   .     S
Ce352     Ce744    9.88   .     S
Ce353     Ce744    9.837   .     S
Ce353     Ti597    9.826   1_556     S
Ce353     Ce737    9.88   .     S
Ce354     Ce358    9.837   .     S
Ce354     Ti380    9.826   .     S
Ce354     Ce728    9.88   .     S
Ce354     Ce749    9.88   .     S
Ce355     Ce728    9.837   .     S
Ce355     Ti644    9.826   .     S
Ce355     Ce358    9.88   .     S
Ce356     Ce751    9.837   .     S
Ce356     Ce389    9.837   .     S
Ce356     Ti567    9.826   1_556     S
Ce356     Ce736    9.88   .     S
Ce357     Ce729    9.837   .     S
Ce357     Ti441    9.826   .     S
Ce357     Ce735    9.88   .     S
Ce357     Ce751    9.88   .     S
Ce358     Ti429    9.826   1_565     S
Ce358     Ti649    9.826   .     S
He359     Er381    9.81   .     S
He359     He386    10.101   .     S
He359     S806    10.29   .     S
He359     He360    10.304   .     S
He359     He388    10.018   .     S
He360     Er381    9.81   .     S
He360     He387    10.101   .     S
He360     S790    10.29   .     S
He360     He385    10.018   .     S
He361     Er366    9.81   .     S
He361     He365    10.101   .     S
He361     S810    10.29   .     S
He361     He384    10.304   .     S
He361     He363    10.018   .     S
He362     Er369    9.81   .     S
He362     He384    10.101   .     S
He362     S775    10.29   .     S
He362     He363    10.304   .     S
He362     He387    10.018   .     S
He363     Er369    9.81   .     S
He363     He388    10.101   .     S
He363     S810    10.29   .     S
He364     Er372    9.81   .     S
He364     He385    10.101   .     S
He364     S792    10.29   .     S
He364     He365    10.304   .     S
He364     He384    10.018   .     S
He365     Er372    9.81   .     S
He365     S780    10.29   .     S
He365     He386    10.018   .     S
Er366     Ti367    9.639   .     S
Er366     Ti368    9.639   .     S
Er366     He384    9.81   .     S
Ti367     Ce750    9.826   .     S
Ti367     Ti598    9.938   .     S
Ti367     Ti371    9.726   .     S
Ti368     Ce208    9.826   1_554     S
Ti368     Ti499    9.938   1_554     S
Ti368     Ti374    9.726   .     S
Er369     Ti370    9.639   .     S
Er369     Ti371    9.639   .     S
Ti370     Ti506    9.938   .     S
Ti370     Ti377    9.726   .     S
Ti371     Ce745    9.826   .     S
Ti371     Ti681    9.938   .     S
Er372     Ti374    9.639   .     S
Er372     Ti373    9.639   .     S
Ti373     Ce199    9.826   1_565     S
Ti373     Ti589    9.938   1_565     S
Ti373     Ti379    9.726   .     S
Ti374     Ce250    9.826   1_554     S
Ti374     Ti242    9.938   1_554     S
Er375     Ti377    9.639   .     S
Er375     Ti376    9.639   .     S
Er375     He387    9.81   .     S
Er375     He388    9.81   .     S
Ti376     Ce760    9.826   .     S
Ti376     Ti690    9.938   .     S
Ti376     Ti382    9.726   .     S
Ti377     Ce761    9.826   .     S
Ti377     Ti406    9.938   .     S
Er378     Ti380    9.639   .     S
Er378     Ti379    9.639   .     S
Er378     He385    9.81   .     S
Er378     He386    9.81   .     S
Ti379     Ce758    9.826   1_565     S
Ti379     Ti650    9.938   1_565     S
Ti380     Ti383    9.726   .     S
Er381     Ti383    9.639   .     S
Er381     Ti382    9.639   .     S
Ti382     Ce739    9.826   .     S
Ti382     Ti643    9.938   .     S
Ti383     Ce728    9.826   .     S
Ti383     Ti403    9.938   .     S
He384     S792    10.29   .     S
He385     S790    10.29   .     S
He385     He386    10.304   .     S
He386     S780    10.29   .     S
He387     S775    10.29   .     S
He387     He388    10.304   .     S
He388     S806    10.29   .     S
Ce389     Ce751    9.837   .     S
Ce389     Ti502    9.826   .     S
Ce389     Ti414    9.826   1_556     S
He390     Er398    9.81   .     S
He390     He417    10.101   .     S
He390     S789    10.29   .     S
He390     He416    10.304   .     S
He390     He393    10.018   .     S
He391     Er404    9.81   .     S
He391     He393    10.101   .     S
He391     S772    10.29   .     S
He391     He392    10.304   .     S
He391     He395    10.018   .     S
He392     Er404    9.81   .     S
He392     He396    10.101   .     S
He392     S806    10.29   .     S
He392     He394    10.018   .     S
He393     Er401    9.81   .     S
He393     S789    10.29   .     S
He393     He394    10.304   .     S
He394     Er401    9.81   .     S
He394     He416    10.101   .     S
He394     S806    10.29   .     S
He395     Er407    9.81   .     S
He395     He419    10.101   .     S
He395     S772    10.29   .     S
He395     He396    10.304   .     S
He396     Er407    9.81   .     S
He396     S802    10.29   .     S
He396     He418    10.018   .     S
He397     Er410    9.81   .     S
He397     He418    10.101   .     S
He397     S769    10.29   .     S
He397     He417    10.304   .     S
He397     He416    10.018   .     S
Er398     Ti400    9.639   .     S
Er398     Ti399    9.639   .     S
Er398     He416    9.81   .     S
Ti399     Ce748    9.826   1_655     S
Ti399     Ti722    9.938   1_655     S
Ti399     Ti411    9.726   .     S
Ti400     Ce749    9.826   .     S
Ti400     Ti403    9.726   .     S
Er401     Ti403    9.639   .     S
Er401     Ti402    9.639   .     S
Ti402     Ce732    9.826   .     S
Ti402     Ti709    9.938   .     S
Ti402     Ti405    9.726   .     S
Ti403     Ce728    9.826   .     S
Er404     Ti406    9.639   .     S
Er404     Ti405    9.639   .     S
Ti405     Ce767    9.826   .     S
Ti405     Ti437    9.938   .     S
Ti406     Ce761    9.826   .     S
Ti406     Ti409    9.726   .     S
Er407     Ti408    9.639   .     S
Er407     Ti409    9.639   .     S
Ti408     Ce756    9.826   .     S
Ti408     Ti435    9.938   .     S
Ti408     Ti415    9.726   .     S
Ti409     Ce740    9.826   .     S
Ti409     Ti509    9.938   .     S
Er410     Ti412    9.639   .     S
Er410     Ti411    9.639   .     S
Er410     He417    9.81   .     S
Ti411     Ce207    9.826   1_655     S
Ti411     Ti553    9.938   1_655     S
Ti412     Ce350    9.826   1_554     S
Ti412     Ti236    9.938   1_554     S
Ti412     Ti414    9.726   .     S
Er413     Ti415    9.639   .     S
Er413     Ti414    9.639   .     S
Er413     He418    9.81   .     S
Er413     He419    9.81   .     S
Ti414     Ce389    9.826   1_554     S
Ti414     Ti502    9.938   1_554     S
Ti415     Ce738    9.826   .     S
Ti415     Ti568    9.938   .     S
He416     S769    10.29   .     S
He417     S796    10.29   .     S
He417     He419    10.018   .     S
He418     S802    10.29   .     S
He418     He419    10.304   .     S
He419     S796    10.29   .     S
Ce420     Ce725    9.837   .     S
Ce420     Ti440    9.826   1_455     S
Ce420     Ti713    9.826   .     S
Ce420     Ce753    9.88   .     S
He421     Er442    9.81   .     S
He421     He446    10.101   .     S
He421     S808    10.29   .     S
He421     He422    10.304   .     S
He421     He449    10.018   .     S
He422     Er442    9.81   .     S
He422     He448    10.101   .     S
He422     S788    10.29   .     S
He422     He447    10.018   .     S
He423     Er433    9.81   .     S
He423     He425    10.101   .     S
He423     S772    10.29   .     S
He423     He424    10.304   .     S
He423     He448    10.018   .     S
He424     Er433    9.81   .     S
He424     He449    10.101   .     S
He424     S815    10.29   .     S
He424     He450    10.018   .     S
He425     Er427    9.81   .     S
He425     S793    10.29   .     S
He425     He450    10.304   .     S
He425     He426    10.018   .     S
He426     Er430    9.81   .     S
He426     He447    10.101   .     S
He426     S793    10.29   .     S
He426     He445    10.304   .     S
Er427     Ti429    9.639   .     S
Er427     Ti428    9.639   .     S
Er427     He450    9.81   .     S
Ti428     Ce726    9.826   .     S
Ti428     Ti565    9.938   .     S
Ti428     Ti435    9.726   .     S
Ti429     Ce358    9.826   1_545     S
Ti429     Ti649    9.938   1_545     S
Ti429     Ti432    9.726   .     S
Er430     Ti432    9.639   .     S
Er430     Ti431    9.639   .     S
Er430     He445    9.81   .     S
Ti431     Ce198    9.826   1_655     S
Ti431     Ti556    9.938   1_655     S
Ti431     Ti440    9.726   .     S
Ti432     Ce345    9.826   1_545     S
Ti432     Ti274    9.938   1_545     S
Er433     Ti434    9.639   .     S
Er433     Ti435    9.639   .     S
Ti434     Ti659    9.938   .     S
Ti434     Ti438    9.726   .     S
Ti435     Ce756    9.826   .     S
Er436     Ti438    9.639   .     S
Er436     Ti437    9.639   .     S
Er436     He448    9.81   .     S
Er436     He449    9.81   .     S
Ti437     Ce767    9.826   .     S
Ti437     Ti443    9.726   .     S
Ti438     Ce759    9.826   .     S
Ti438     Ti472    9.938   .     S
Er439     Ti441    9.639   .     S
Er439     Ti440    9.639   .     S
Er439     He446    9.81   .     S
Er439     He447    9.81   .     S
Ti440     Ce420    9.826   1_655     S
Ti440     Ti713    9.938   1_655     S
Ti441     Ti444    9.726   .     S
Er442     Ti444    9.639   .     S
Er442     Ti443    9.639   .     S
Ti443     Ce741    9.826   .     S
Ti443     Ti706    9.938   .     S
Ti444     Ce735    9.826   .     S
Ti444     Ti474    9.938   .     S
He445     He450    10.101   .     S
He445     S776    10.29   .     S
He445     He446    10.018   .     S
He446     S776    10.29   .     S
He446     He447    10.304   .     S
He447     S788    10.29   .     S
He448     S772    10.29   .     S
He448     He449    10.304   .     S
He449     S808    10.29   .     S
He450     S815    10.29   .     S
Ce451     Ti468    9.826   1_565     S
Ce451     Ti652    9.826   .     S
He452     Er476    9.81   .     S
He452     He459    10.101   .     S
He452     S785    10.29   .     S
He452     He460    10.304   .     S
He452     He456    10.018   .     S
He453     Er461    9.81   .     S
He453     He455    10.101   .     S
He453     S816    10.29   .     S
He453     He458    10.304   .     S
He453     He480    10.018   .     S
He454     Er470    9.81   .     S
He454     He456    10.101   .     S
He454     S774    10.29   .     S
He454     He455    10.304   .     S
He454     He458    10.018   .     S
He455     Er470    9.81   .     S
He455     S808    10.29   .     S
He455     He457    10.018   .     S
He456     Er473    9.81   .     S
He456     S785    10.29   .     S
He456     He457    10.304   .     S
He457     Er473    9.81   .     S
He457     He460    10.101   .     S
He457     S808    10.29   .     S
He458     Er461    9.81   .     S
He458     He481    10.101   .     S
He458     S774    10.29   .     S
He459     Er464    9.81   .     S
He459     S787    10.29   .     S
He459     He479    10.304   .     S
He459     He481    10.018   .     S
He460     Er476    9.81   .     S
He460     S778    10.29   .     S
He460     He479    10.018   .     S
Er461     Ti463    9.639   .     S
Er461     Ti462    9.639   .     S
Ti462     Ce755    9.826   .     S
Ti462     Ti631    9.938   .     S
Ti462     Ti469    9.726   .     S
Ti463     Ti656    9.938   .     S
Ti463     Ti472    9.726   .     S
Er464     Ti466    9.639   .     S
Er464     Ti465    9.639   .     S
Er464     He479    9.81   .     S
Ti465     Ce213    9.826   1_556     S
Ti465     Ti534    9.938   1_556     S
Ti465     Ti477    9.726   .     S
Ti466     Ce203    9.826   1_545     S
Ti466     Ti268    9.938   1_545     S
Ti466     Ti468    9.726   .     S
Er467     Ti469    9.639   .     S
Er467     Ti468    9.639   .     S
Er467     He480    9.81   .     S
Er467     He481    9.81   .     S
Ti468     Ce451    9.826   1_545     S
Ti468     Ti652    9.938   1_545     S
Ti469     Ti525    9.938   .     S
Er470     Ti472    9.639   .     S
Er470     Ti471    9.639   .     S
Ti471     Ce766    9.826   .     S
Ti471     Ti621    9.938   .     S
Ti471     Ti475    9.726   .     S
Ti472     Ce759    9.826   .     S
Er473     Ti474    9.639   .     S
Er473     Ti475    9.639   .     S
Ti474     Ce735    9.826   .     S
Ti474     Ti478    9.726   .     S
Ti475     Ce743    9.826   .     S
Ti475     Ti493    9.938   .     S
Er476     Ti478    9.639   .     S
Er476     Ti477    9.639   .     S
Ti477     Ce752    9.826   1_556     S
Ti477     Ti503    9.938   1_556     S
Ti478     Ce751    9.826   .     S
He479     He480    10.101   .     S
He479     S778    10.29   .     S
He480     S816    10.29   .     S
He480     He481    10.304   .     S
He481     S787    10.29   .     S
He482     Er495    9.81   .     S
He482     He485    10.101   1_556     S
He482     S805    10.29   .     S
He482     He483    10.304   .     S
He482     He491    10.018   .     S
He483     Er495    9.81   .     S
He483     He486    10.101   .     S
He483     S784    10.29   .     S
He483     He484    10.018   .     S
He484     Er498    9.81   1_556     S
He484     He510    10.101   1_556     S
He484     H75    10.188   1_556     S
He484     S784    10.29   .     S
He484     He485    10.304   1_556     S
He485     Er498    9.81   .     S
He485     He482    10.101   1_554     S
He485     H39    10.188   1_554     S
He485     S810    10.29   .     S
He485     He484    10.304   1_554     S
He485     He489    10.018   .     S
He486     Er492    9.81   .     S
He486     S785    10.29   .     S
He486     He491    10.304   .     S
He486     He490    10.018   .     S
He487     Er507    9.81   .     S
He487     He489    10.101   .     S
He487     S802    10.29   .     S
He487     He488    10.304   .     S
He487     He511    10.018   .     S
He488     Er507    9.81   .     S
He488     He490    10.101   1_554     S
He488     S795    10.29   .     S
He488     He510    10.018   .     S
He489     Er504    9.81   .     S
He489     S810    10.29   .     S
He489     He510    10.304   .     S
He490     Er501    9.81   1_556     S
He490     He488    10.101   1_556     S
He490     H88    10.188   1_556     S
He490     S785    10.29   .     S
He490     He511    10.304   1_556     S
He491     Er492    9.81   .     S
He491     He511    10.101   1_556     S
He491     S805    10.29   .     S
Er492     Ti493    9.639   .     S
Er492     Ti494    9.639   .     S
Ti493     Ce743    9.826   .     S
Ti493     Ti496    9.726   .     S
Ti494     Ti502    9.726   .     S
Er495     Ti497    9.639   .     S
Er495     Ti496    9.639   .     S
Ti496     Ce742    9.826   .     S
Ti496     Ti624    9.938   .     S
Ti497     Ti499    9.726   .     S
Er498     V172    9.985   1_554     S
Er498     Ti500    9.639   .     S
Er498     Ti499    9.639   1_554     S
Er498     He484    9.81   1_554     S
Ti499     Er498    9.639   1_556     S
Ti499     Ti368    9.938   1_556     S
Ti500     Ce603    9.826   .     S
Ti500     Ti627    9.938   1_554     S
Ti500     Ti505    9.726   .     S
Er501     V133    9.985   1_554     S
Er501     Ti502    9.639   1_554     S
Er501     Ti503    9.639   .     S
Er501     He490    9.81   1_554     S
Er501     He511    9.81   .     S
Ti502     Er501    9.639   1_556     S
Ti502     Ti414    9.938   1_556     S
Ti503     Ce752    9.826   .     S
Ti503     Ti477    9.938   1_554     S
Ti503     Ti508    9.726   .     S
Er504     Ti505    9.639   .     S
Er504     Ti506    9.639   .     S
Er504     He510    9.81   .     S
Ti505     Ce730    9.826   .     S
Ti505     Ti530    9.938   .     S
Ti506     Ti509    9.726   .     S
Er507     Ti509    9.639   .     S
Er507     Ti508    9.639   .     S
Ti508     Ce764    9.826   .     S
Ti508     Ti536    9.938   .     S
Ti509     Ce740    9.826   .     S
He510     He484    10.101   1_554     S
He510     S795    10.29   .     S
He511     He491    10.101   1_554     S
He511     H5    10.188   1_554     S
He511     S802    10.29   .     S
He511     He490    10.304   1_554     S
He512     Er520    9.81   .     S
He512     He540    10.101   1_556     S
He512     S801    10.29   .     S
He512     He519    10.304   .     S
He512     He517    10.018   .     S
He513     Er529    9.81   .     S
He513     He539    10.101   1_554     S
He513     S795    10.29   .     S
He513     He514    10.304   .     S
He513     He538    10.018   .     S
He514     Er529    9.81   .     S
He514     He541    10.101   .     S
He514     S814    10.29   .     S
He514     He540    10.018   .     S
He515     Er532    9.81   1_556     S
He515     He538    10.101   1_556     S
He515     H95    10.188   1_556     S
He515     S787    10.29   .     S
He515     He516    10.304   1_556     S
He515     He518    10.018   .     S
He516     Er532    9.81   .     S
He516     He517    10.101   1_554     S
He516     H30    10.188   1_554     S
He516     S809    10.29   .     S
He516     He515    10.304   1_554     S
He516     He541    10.018   .     S
He517     Er523    9.81   .     S
He517     He516    10.101   1_556     S
He517     S801    10.29   .     S
He517     He518    10.304   .     S
He518     Er523    9.81   .     S
He518     He519    10.101   .     S
He518     S787    10.29   .     S
He519     Er520    9.81   .     S
He519     S797    10.29   .     S
He519     He539    10.018   .     S
Er520     Ti522    9.639   .     S
Er520     Ti521    9.639   .     S
Ti521     Ce200    9.826   1_455     S
Ti521     Ti295    9.938   1_455     S
Ti521     Ti527    9.726   .     S
Ti522     Ce725    9.826   .     S
Ti522     Ti615    9.938   .     S
Ti522     Ti525    9.726   .     S
Er523     Ti525    9.639   .     S
Er523     Ti524    9.639   .     S
Ti524     Ce204    9.826   1_545     S
Ti524     Ti298    9.938   1_545     S
Ti524     Ti533    9.726   .     S
Er526     V168    9.985   1_554     S
Er526     Ti528    9.639   .     S
Er526     Ti527    9.639   1_554     S
Er526     He539    9.81   1_554     S
Er526     He540    9.81   .     S
Ti527     Er526    9.639   1_556     S
Ti527     Ce736    9.826   1_455     S
Ti527     Ti552    9.938   1_456     S
Ti528     Ti618    9.938   1_554     S
Ti528     Ti530    9.726   .     S
Er529     Ti531    9.639   .     S
Er529     Ti530    9.639   .     S
Ti530     Ce730    9.826   .     S
Ti531     Ti558    9.938   .     S
Ti531     Ti537    9.726   .     S
Er532     V154    9.985   1_554     S
Er532     Ti534    9.639   .     S
Er532     Ti533    9.639   1_554     S
Er532     He515    9.81   1_554     S
Ti533     Er532    9.639   1_556     S
Ti533     Ce737    9.826   1_545     S
Ti533     Ti588    9.938   1_546     S
Ti534     Ti465    9.938   1_554     S
Ti534     Ti536    9.726   .     S
Er535     Ti536    9.639   .     S
Er535     Ti537    9.639   .     S
Er535     He538    9.81   .     S
Er535     He541    9.81   .     S
Ti536     Ce764    9.826   .     S
Ti537     Ti592    9.938   .     S
He538     He515    10.101   1_554     S
He538     S795    10.29   .     S
He538     He541    10.304   .     S
He539     Er526    9.81   1_556     S
He539     He513    10.101   1_556     S
He539     H82    10.188   1_556     S
He539     S797    10.29   .     S
He539     He540    10.304   1_556     S
He540     He512    10.101   1_554     S
He540     H46    10.188   1_554     S
He540     S814    10.29   .     S
He540     He539    10.304   1_554     S
He541     S809    10.29   .     S
He542     Er560    9.81   .     S
He542     He569    10.101   .     S
He542     S813    10.29   .     S
He542     He543    10.304   .     S
He542     He571    10.018   .     S
He543     Er560    9.81   .     S
He543     He570    10.101   1_455     S
He543     S781    10.29   .     S
He543     He550    10.018   .     S
He544     Er566    9.81   .     S
He544     He549    10.101   1_655     S
He544     S799    10.29   .     S
He544     He547    10.304   .     S
He544     He545    10.018   .     S
He545     Er563    9.81   .     S
He545     He571    10.101   1_655     S
He545     S799    10.29   .     S
He545     He546    10.304   .     S
He546     Er563    9.81   .     S
He546     He547    10.101   .     S
He546     S793    10.29   .     S
He546     He570    10.018   .     S
He547     Er566    9.81   .     S
He547     S796    10.29   .     S
He547     He548    10.018   .     S
He548     Er551    9.81   1_655     S
He548     He550    10.101   1_655     S
He548     H93    10.188   1_655     S
He548     S796    10.29   .     S
He548     He549    10.304   1_655     S
He549     Er551    9.81   .     S
He549     He544    10.101   1_455     S
He549     H24    10.188   1_455     S
He549     S814    10.29   .     S
He549     He548    10.304   1_455     S
He549     He569    10.018   .     S
He550     Er557    9.81   .     S
He550     He548    10.101   1_455     S
He550     S781    10.29   .     S
He550     He569    10.304   .     S
Er551     V156    9.985   1_455     S
Er551     Ti553    9.639   .     S
Er551     Ti552    9.639   1_455     S
Er551     He548    9.81   1_455     S
Ti552     Er551    9.639   1_655     S
Ti552     Ce736    9.826   1_554     S
Ti552     Ti527    9.938   1_654     S
Ti552     Ti567    9.726   .     S
Ti553     Ti411    9.938   1_455     S
Ti553     Ti559    9.726   .     S
Er554     V120    9.985   1_455     S
Er554     Ti556    9.639   .     S
Er554     Ti555    9.639   1_455     S
Er554     He570    9.81   1_455     S
Er554     He571    9.81   .     S
Ti555     Er554    9.639   1_655     S
Ti555     Ce734    9.826   1_545     S
Ti555     Ti585    9.938   1_645     S
Ti555     Ti564    9.726   .     S
Ti556     Ti431    9.938   1_455     S
Ti556     Ti561    9.726   .     S
Er557     Ti558    9.639   .     S
Er557     Ti559    9.639   .     S
Er557     He569    9.81   .     S
Ti558     Ti562    9.726   .     S
Ti559     Ti718    9.938   .     S
Er560     Ti562    9.639   .     S
Er560     Ti561    9.639   .     S
Ti561     Ce753    9.826   .     S
Ti561     Ti715    9.938   .     S
Ti562     Ce757    9.826   .     S
Ti562     Ti594    9.938   .     S
Er563     Ti565    9.639   .     S
Er563     Ti564    9.639   .     S
Ti564     Ce351    9.826   1_545     S
Ti564     Ti301    9.938   1_545     S
Ti565     Ce726    9.826   .     S
Ti565     Ti568    9.726   .     S
Er566     Ti568    9.639   .     S
Er566     Ti567    9.639   .     S
Ti567     Ce356    9.826   1_554     S
Ti567     Ti304    9.938   1_554     S
Ti568     Ce738    9.826   .     S
He569     S814    10.29   .     S
He570     Er554    9.81   1_655     S
He570     He543    10.101   1_655     S
He570     H78    10.188   1_655     S
He570     S793    10.29   .     S
He570     He571    10.304   1_655     S
He571     He545    10.101   1_455     S
He571     H81    10.188   1_455     S
He571     S813    10.29   .     S
He571     He570    10.304   1_455     S
Ce572     Ce748    9.837   .     S
Ce572     Ti600    9.826   .     S
Ce572     Ti688    9.826   .     S
Ce572     Ce745    9.88   .     S
Ce572     Ce750    9.88   .     S
He573     Er590    9.81   .     S
He573     He602    10.101   .     S
He573     S809    10.29   .     S
He573     He574    10.304   .     S
He573     He581    10.018   .     S
He574     Er590    9.81   .     S
He574     He580    10.101   1_545     S
He574     S807    10.29   .     S
He574     He583    10.018   .     S
He575     Er599    9.81   .     S
He575     He579    10.101   1_565     S
He575     S803    10.29   .     S
He575     He582    10.304   .     S
He575     He576    10.018   .     S
He576     Er596    9.81   .     S
He576     He581    10.101   1_565     S
He576     S803    10.29   .     S
He576     He577    10.304   .     S
He577     Er596    9.81   .     S
He577     He582    10.101   .     S
He577     S792    10.29   .     S
He577     He580    10.018   .     S
He578     Er584    9.81   1_565     S
He578     He583    10.101   1_565     S
He578     H768    10.188   1_565     S
He578     S798    10.29   .     S
He578     He579    10.304   1_565     S
He578     He582    10.018   .     S
He579     Er584    9.81   .     S
He579     He575    10.101   1_545     S
He579     H10    10.188   1_545     S
He579     S813    10.29   .     S
He579     He578    10.304   1_545     S
He579     He602    10.018   .     S
He580     Er587    9.81   1_565     S
He580     He574    10.101   1_565     S
He580     H87    10.188   1_565     S
He580     S792    10.29   .     S
He580     He581    10.304   1_565     S
He581     Er587    9.81   .     S
He581     He576    10.101   1_545     S
He581     H79    10.188   1_545     S
He581     S809    10.29   .     S
He581     He580    10.304   1_545     S
He582     Er599    9.81   .     S
He582     S798    10.29   .     S
He583     Er593    9.81   .     S
He583     He578    10.101   1_545     S
He583     H768    10.188   .     S
He583     S807    10.29   .     S
He583     He602    10.304   .     S
Er584     V182    9.985   1_545     S
Er584     Ti586    9.639   .     S
Er584     Ti585    9.639   1_545     S
Er584     He578    9.81   1_545     S
Ti585     Er584    9.639   1_565     S
Ti585     Ce734    9.826   1_455     S
Ti585     Ti555    9.938   1_465     S
Ti585     Ti601    9.726   .     S
Ti586     H768    10.099   .     S
Ti586     Ti684    9.938   1_545     S
Ti586     Ti595    9.726   .     S
Er587     V124    9.985   1_545     S
Er587     Ti589    9.639   .     S
Er587     Ti588    9.639   1_545     S
Er587     He580    9.81   1_545     S
Ti588     Er587    9.639   1_565     S
Ti588     Ce737    9.826   1_554     S
Ti588     Ti533    9.938   1_564     S
Ti588     Ti597    9.726   .     S
Ti589     Ti373    9.938   1_545     S
Ti589     Ti591    9.726   .     S
Er590     Ti592    9.639   .     S
Er590     Ti591    9.639   .     S
Ti591     Ce754    9.826   .     S
Ti591     Ti658    9.938   .     S
Ti592     Ti594    9.726   .     S
Er593     Ti594    9.639   .     S
Er593     Ti595    9.639   .     S
Er593     He602    9.81   .     S
Ti594     Ce757    9.826   .     S
Ti595     H768    10.099   .     S
Ti595     Ti655    9.938   .     S
Er596     Ti598    9.639   .     S
Er596     Ti597    9.639   .     S
Ti597     Ce353    9.826   1_554     S
Ti597     Ti310    9.938   1_554     S
Ti598     Ce750    9.826   .     S
Ti598     Ti600    9.726   .     S
Er599     Ti600    9.639   .     S
Er599     Ti601    9.639   .     S
Ti600     Ti688    9.938   .     S
Ti601     Ce348    9.826   1_455     S
Ti601     Ti307    9.938   1_455     S
He602     S813    10.29   .     S
Ce603     Ce750    9.837   .     S
Ce603     Ti627    9.826   1_554     S
Ce603     Ce730    9.88   .     S
He604     Er623    9.81   .     S
He604     He613    10.101   .     S
He604     S804    10.29   .     S
He604     He605    10.304   .     S
He604     He610    10.018   .     S
He605     Er623    9.81   .     S
He605     He609    10.101   .     S
He605     S784    10.29   .     S
He605     He612    10.018   .     S
He606     Er614    9.81   .     S
He606     He632    10.101   .     S
He606     S783    10.29   .     S
He606     He633    10.304   .     S
He606     He608    10.018   .     S
He607     Er629    9.81   .     S
He607     He633    10.101   .     S
He607     S774    10.29   .     S
He607     He608    10.304   .     S
He607     He609    10.018   .     S
He608     Er629    9.81   .     S
He608     He610    10.101   .     S
He608     S783    10.29   .     S
He609     Er620    9.81   .     S
He609     S774    10.29   .     S
He609     He610    10.304   .     S
He610     Er620    9.81   .     S
He610     S804    10.29   .     S
He611     Er617    9.81   .     S
He611     He612    10.101   .     S
He611     S797    10.29   .     S
He611     He632    10.304   .     S
He611     He633    10.018   .     S
He612     Er626    9.81   .     S
He612     S784    10.29   .     S
He612     He613    10.304   .     S
He613     Er626    9.81   .     S
He613     S777    10.29   .     S
He613     He632    10.018   .     S
Er614     Ti616    9.639   .     S
Er614     Ti615    9.639   .     S
Er614     He633    9.81   .     S
Ti615     Ce725    9.826   .     S
Ti615     Ti631    9.726   .     S
Ti616     Ce729    9.826   1_455     S
Ti616     Ti712    9.938   1_455     S
Ti616     Ti619    9.726   .     S
Er617     Ti619    9.639   .     S
Er617     Ti618    9.639   .     S
Er617     He632    9.81   .     S
Ti618     Ce347    9.826   1_556     S
Ti618     Ti528    9.938   1_556     S
Ti618     Ti627    9.726   .     S
Ti619     Ce201    9.826   1_455     S
Ti619     Ti335    9.938   1_455     S
Er620     Ti622    9.639   .     S
Er620     Ti621    9.639   .     S
Ti621     Ce766    9.826   .     S
Ti621     Ti624    9.726   .     S
Ti622     Ce763    9.826   .     S
Ti622     Ti691    9.938   .     S
Ti622     Ti630    9.726   .     S
Er623     Ti625    9.639   .     S
Er623     Ti624    9.639   .     S
Ti624     Ce742    9.826   .     S
Ti625     Ce731    9.826   .     S
Ti625     Ti679    9.938   .     S
Ti625     Ti628    9.726   .     S
Er626     Ti628    9.639   .     S
Er626     Ti627    9.639   .     S
Ti627     Ce603    9.826   1_556     S
Ti627     Ti500    9.938   1_556     S
Ti628     Ce744    9.826   .     S
Er629     Ti630    9.639   .     S
Er629     Ti631    9.639   .     S
Ti630     Ti716    9.938   .     S
Ti631     Ce755    9.826   .     S
He632     S777    10.29   .     S
He633     S797    10.29   .     S
He634     Er642    9.81   .     S
He634     He662    10.101   1_565     S
He634     S811    10.29   .     S
He634     He635    10.304   .     S
He634     He637    10.018   .     S
He635     Er642    9.81   .     S
He635     He638    10.101   .     S
He635     S790    10.29   .     S
He635     He663    10.018   .     S
He636     Er651    9.81   .     S
He636     He637    10.101   1_545     S
He636     H72    10.188   1_545     S
He636     S816    10.29   .     S
He636     He660    10.304   1_545     S
He636     He640    10.018   .     S
He637     Er645    9.81   .     S
He637     He636    10.101   1_565     S
He637     S811    10.29   .     S
He637     He638    10.304   .     S
He638     Er645    9.81   .     S
He638     S782    10.29   .     S
He638     He660    10.018   .     S
He639     Er654    9.81   .     S
He639     He660    10.101   1_545     S
He639     S807    10.29   .     S
He639     He640    10.304   .     S
He639     He641    10.018   .     S
He640     Er654    9.81   .     S
He640     He661    10.101   .     S
He640     S816    10.29   .     S
He641     Er657    9.81   .     S
He641     He663    10.101   1_545     S
He641     S807    10.29   .     S
He641     He661    10.304   .     S
Er642     Ti643    9.639   .     S
Er642     Ti644    9.639   .     S
Ti643     Ce739    9.826   .     S
Ti643     Ti646    9.726   .     S
Ti644     Ti649    9.726   .     S
Er645     Ti646    9.639   .     S
Er645     Ti647    9.639   .     S
Ti646     Ce733    9.826   .     S
Ti646     Ti678    9.938   .     S
Ti647     Ti652    9.726   .     S
Er648     V108    9.985   1_545     S
Er648     Ti650    9.639   .     S
Er648     Ti649    9.639   1_545     S
Er648     He662    9.81   .     S
Er648     He663    9.81   1_545     S
Ti649     Er648    9.639   1_565     S
Ti649     Ti429    9.938   1_565     S
Ti650     Ce758    9.826   .     S
Ti650     Ti379    9.938   1_545     S
Ti650     Ti658    9.726   .     S
Er651     V131    9.985   1_545     S
Er651     Ti653    9.639   .     S
Er651     Ti652    9.639   1_545     S
Er651     He660    9.81   1_545     S
Ti652     Er651    9.639   1_565     S
Ti652     Ti468    9.938   1_565     S
Ti653     Ce664    9.826   .     S
Ti653     Ti675    9.938   1_545     S
Ti653     Ti655    9.726   .     S
Er654     Ti656    9.639   .     S
Er654     Ti655    9.639   .     S
Ti656     Ti659    9.726   .     S
Er657     Ti658    9.639   .     S
Er657     Ti659    9.639   .     S
Er657     He661    9.81   .     S
Ti658     Ce754    9.826   .     S
He660     Er651    9.81   1_565     S
He660     He639    10.101   1_565     S
He660     H67    10.188   1_565     S
He660     S782    10.29   .     S
He660     He636    10.304   1_565     S
He661     S815    10.29   .     S
He661     He662    10.018   .     S
He662     He634    10.101   1_545     S
He662     H4    10.188   1_545     S
He662     S815    10.29   .     S
He662     He663    10.304   1_545     S
He663     Er648    9.81   1_565     S
He663     He641    10.101   1_565     S
He663     H91    10.188   1_565     S
He663     S790    10.29   .     S
He663     He662    10.304   1_565     S
Ce664     Ce747    9.837   .     S
Ce664     Ti675    9.826   1_545     S
He665     Er677    9.81   .     S
He665     He669    10.101   .     S
He665     S782    10.29   .     S
He665     He666    10.304   .     S
He665     He667    10.018   .     S
He666     Er677    9.81   .     S
He666     He671    10.101   .     S
He666     S804    10.29   .     S
He666     He670    10.018   .     S
He667     Er674    9.81   .     S
He667     He693    10.101   .     S
He667     S782    10.29   .     S
He667     He671    10.304   .     S
He668     Er686    9.81   .     S
He668     He672    10.101   .     S
He668     S786    10.29   .     S
He668     He694    10.304   .     S
He668     He673    10.018   .     S
He669     Er689    9.81   .     S
He669     S775    10.29   .     S
He669     He670    10.304   .     S
He669     He692    10.018   .     S
He670     Er689    9.81   .     S
He670     He673    10.101   .     S
He670     S804    10.29   .     S
He671     Er674    9.81   .     S
He671     S779    10.29   .     S
He671     He672    10.018   .     S
He672     Er683    9.81   .     S
He672     S779    10.29   .     S
He672     He693    10.304   .     S
He673     Er680    9.81   .     S
He673     S786    10.29   .     S
He673     He692    10.304   .     S
Er674     Ti676    9.639   .     S
Er674     Ti675    9.639   .     S
Ti675     Ce664    9.826   1_565     S
Ti675     Ti653    9.938   1_565     S
Ti675     Ti684    9.726   .     S
Ti676     Ti679    9.726   .     S
Er677     Ti679    9.639   .     S
Er677     Ti678    9.639   .     S
Ti678     Ce733    9.826   .     S
Ti678     Ti690    9.726   .     S
Ti679     Ce731    9.826   .     S
Er680     Ti682    9.639   .     S
Er680     Ti681    9.639   .     S
Er680     He692    9.81   .     S
Ti681     Ce745    9.826   .     S
Ti681     Ti688    9.726   .     S
Ti682     Ce762    9.826   .     S
Ti682     Ti719    9.938   .     S
Ti682     Ti691    9.726   .     S
Er683     Ti685    9.639   .     S
Er683     Ti684    9.639   .     S
Er683     He693    9.81   .     S
Ti684     Ce349    9.826   1_565     S
Ti684     Ti586    9.938   1_565     S
Ti685     Ce202    9.826   1_455     S
Ti685     Ti329    9.938   1_455     S
Ti685     Ti687    9.726   .     S
Er686     Ti687    9.639   .     S
Er686     Ti688    9.639   .     S
Er686     He694    9.81   .     S
Ti687     Ce727    9.826   1_455     S
Ti687     Ti721    9.938   1_455     S
Er689     Ti691    9.639   .     S
Er689     Ti690    9.639   .     S
Ti690     Ce760    9.826   .     S
Ti691     Ce763    9.826   .     S
He692     He694    10.101   .     S
He692     S775    10.29   .     S
He693     S798    10.29   .     S
He693     He694    10.018   .     S
He694     S798    10.29   .     S
He695     Er714    9.81   .     S
He695     He699    10.101   .     S
He695     S783    10.29   .     S
He695     He704    10.304   .     S
He695     He703    10.018   .     S
He696     Er720    9.81   1_655     S
He696     He698    10.101   1_655     S
He696     H89    10.188   1_655     S
He696     S789    10.29   .     S
He696     He697    10.304   1_655     S
He696     He702    10.018   .     S
He697     Er720    9.81   .     S
He697     He701    10.101   1_455     S
He697     H29    10.188   1_455     S
He697     S786    10.29   .     S
He697     He696    10.304   1_455     S
He697     He699    10.018   .     S
He698     Er717    9.81   .     S
He698     He696    10.101   1_455     S
He698     S781    10.29   .     S
He698     He699    10.304   .     S
He698     He704    10.018   .     S
He699     Er717    9.81   .     S
He699     S786    10.29   .     S
He700     Er711    9.81   1_655     S
He700     He704    10.101   1_655     S
He700     H90    10.188   1_655     S
He700     S788    10.29   .     S
He700     He703    10.304   1_655     S
He700     He723    10.018   .     S
He701     Er708    9.81   .     S
He701     He697    10.101   1_655     S
He701     S812    10.29   .     S
He701     He702    10.304   .     S
He701     He724    10.018   .     S
He702     Er708    9.81   .     S
He702     He723    10.101   .     S
He702     S789    10.29   .     S
He703     Er711    9.81   .     S
He703     He724    10.101   1_455     S
He703     H57    10.188   1_455     S
He703     S783    10.29   .     S
He703     He700    10.304   1_455     S
He704     Er714    9.81   .     S
He704     He700    10.101   1_455     S
He704     S781    10.29   .     S
Er705     Ti706    9.639   .     S
Er705     Ti707    9.639   .     S
Er705     He723    9.81   .     S
Er705     He724    9.81   .     S
Ti706     Ce741    9.826   .     S
Ti706     Ti709    9.726   .     S
Ti707     Ce765    9.826   .     S
Ti707     Ti712    9.726   .     S
Er708     Ti710    9.639   .     S
Er708     Ti709    9.639   .     S
Ti709     Ce732    9.826   .     S
Ti710     Ti721    9.726   .     S
Er711     V134    9.985   1_455     S
Er711     Ti713    9.639   .     S
Er711     Ti712    9.639   1_455     S
Er711     He700    9.81   1_455     S
Ti712     Er711    9.639   1_655     S
Ti712     Ce729    9.826   .     S
Ti712     Ti616    9.938   1_655     S
Ti713     Ti440    9.938   1_455     S
Ti713     Ti715    9.726   .     S
Er714     Ti715    9.639   .     S
Er714     Ti716    9.639   .     S
Ti715     Ce753    9.826   .     S
Ti716     Ti719    9.726   .     S
Er717     Ti719    9.639   .     S
Er717     Ti718    9.639   .     S
Ti718     Ti722    9.726   .     S
Ti719     Ce762    9.826   .     S
Er720     V126    9.985   1_455     S
Er720     Ti722    9.639   .     S
Er720     Ti721    9.639   1_455     S
Er720     He696    9.81   1_455     S
Ti721     Er720    9.639   1_655     S
Ti721     Ce727    9.826   .     S
Ti721     Ti687    9.938   1_655     S
Ti722     Ce748    9.826   .     S
Ti722     Ti399    9.938   1_455     S
He723     S788    10.29   .     S
He723     He724    10.304   .     S
He724     He703    10.101   1_655     S
He724     S812    10.29   .     S
Ce725     Ce755    9.88   .     S
Ce726     Ce758    9.837   .     S
Ce726     Ce738    9.88   .     S
Ce726     Ce756    9.88   .     S
Ce727     Ce749    9.837   .     S
Ce727     Ti687    9.826   1_655     S
Ce728     Ce749    9.88   .     S
Ce729     Ti616    9.826   1_655     S
Ce729     Ce765    9.88   .     S
Ce730     Ce745    9.837   .     S
Ce731     Ce744    9.88   .     S
Ce732     Ce739    9.837   .     S
Ce732     Ce767    9.88   .     S
Ce732     Ce741    9.88   .     S
Ce733     Ce742    9.837   .     S
Ce733     Ce760    9.88   .     S
Ce733     Ce739    9.88   .     S
Ce734     Ti585    9.826   1_655     S
Ce734     Ti555    9.826   1_565     S
Ce735     Ce765    9.837   .     S
Ce735     Ce751    9.88   .     S
Ce736     Ti552    9.826   1_556     S
Ce736     Ti527    9.826   1_655     S
Ce737     Ti588    9.826   1_556     S
Ce737     Ti533    9.826   1_565     S
Ce738     Ce746    9.837   .     S
Ce738     Ce752    9.837   .     S
Ce738     Ce756    9.88   .     S
Ce739     Ce760    9.88   .     S
Ce740     Ce761    9.88   .     S
Ce741     Ce743    9.837   .     S
Ce741     Ce767    9.88   .     S
Ce742     Ce766    9.88   .     S
Ce742     Ce743    9.88   .     S
Ce743     Ce766    9.88   .     S
Ce745     Ce750    9.88   .     S
Ce746     Ce752    9.837   .     S
Ce746     Ti272    9.826   1_554     S
Ce747     Ti333    9.826   1_545     S
Ce748     Ti399    9.826   1_455     S
Ce752     Ti477    9.826   1_554     S
Ce752     Ce764    9.88   .     S
Ce753     Ce755    9.837   .     S
Ce754     Ce764    9.837   .     S
Ce754     Ce756    9.837   .     S
Ce754     Ce758    9.88   .     S
Ce756     Ce764    9.837   .     S
Ce758     Ti379    9.826   1_545     S
Ce759     Ce761    9.837   .     S
Ce759     Ce763    9.837   .     S
Ce760     Ce766    9.837   .     S
Ce760     Ce767    9.837   .     S
Ce761     Ce763    9.837   .     S
Ce762     Ce763    9.88   .     S
Ce766     Ce767    9.837   .     S
H768     H22    10.18   1_545     S
H768     He578    10.188   1_545     S
