data_nun
_audit_creation_date              2020-02-04
_audit_creation_method            'Pymatgen'
_symmetry_space_group_name_H-M    'P1'
_symmetry_Int_Tables_number       1
loop_
_symmetry_equiv_pos_as_xyz
  x,y,z
_cell_length_a                    174.4596
_cell_length_b                    174.4596
_cell_length_c                    174.4596
_cell_angle_alpha                 90.0
_cell_angle_beta                 90.0
_cell_angle_gamma                 90.0
loop_
_atom_site_label
_atom_site_type_symbol
_atom_site_fract_x
_atom_site_fract_y
_atom_site_fract_z
S1     S     0.8791   0.625   0.625
Ne2     Ne     0.9365   0.625   0.625
S3     S     0.625   0.8791   0.625
Ne4     Ne     0.625   0.9365   0.625
S5     S     0.625   0.625   0.8791
Ne6     Ne     0.625   0.625   0.9365
S7     S     0.625   0.3709   0.625
Ne8     Ne     0.625   0.3135   0.625
S9     S     0.125   0.8709   0.625
Ne10     Ne     0.125   0.8135   0.625
S11     S     0.625   0.125   0.8709
Ne12     Ne     0.625   0.125   0.8135
S13     S     0.625   0.3791   0.125
Ne14     Ne     0.625   0.4365   0.125
S15     S     0.625   0.125   0.3791
Ne16     Ne     0.625   0.125   0.4365
S17     S     0.3791   0.125   0.625
Ne18     Ne     0.4365   0.125   0.625
S19     S     0.1209   0.875   0.875
Ne20     Ne     0.0635   0.875   0.875
S21     S     0.875   0.1209   0.875
Ne22     Ne     0.875   0.0635   0.875
S23     S     0.125   0.8791   0.125
Ne24     Ne     0.125   0.9365   0.125
S25     S     0.125   0.125   0.8791
Ne26     Ne     0.125   0.125   0.9365
S27     S     0.625   0.8709   0.125
Ne28     Ne     0.625   0.8135   0.125
S29     S     0.375   0.875   0.6209
Ne30     Ne     0.375   0.875   0.5635
S31     S     0.6209   0.875   0.375
Ne32     Ne     0.5635   0.875   0.375
Mg33     Mg     0.5312   0.9579   0.6019
B34     B     0.5   0.9118   0.5882
Mg35     Mg     0.4688   0.8981   0.5421
Li36     Li     0.5856   0.9497   0.5856
Mg37     Mg     0.6019   0.9579   0.5312
B38     B     0.5882   0.9118   0.5
Mg39     Mg     0.5421   0.8981   0.4688
Mg40     Mg     0.5421   0.9688   0.3981
B41     B     0.5882   0.0   0.4118
Mg42     Mg     0.6019   0.0312   0.4579
Li43     Li     0.5503   0.9144   0.4144
Li44     Li     0.5856   0.0856   0.4497
Mg45     Mg     0.5312   0.1019   0.4579
B46     B     0.5   0.0882   0.4118
Mg47     Mg     0.4688   0.0421   0.3981
Li48     Li     0.4144   0.0503   0.4144
Mg49     Mg     0.3981   0.0421   0.4688
B50     B     0.4118   0.0882   0.5
Mg51     Mg     0.4579   0.1019   0.5312
Li52     Li     0.4144   0.9144   0.5503
Mg53     Mg     0.3981   0.9688   0.5421
B54     B     0.4118   0.0   0.5882
Mg55     Mg     0.4579   0.0312   0.6019
Li56     Li     0.4497   0.0856   0.5856
S57     S     0.375   0.1209   0.375
Ne58     Ne     0.375   0.0635   0.375
S59     S     0.1291   0.875   0.375
Ne60     Ne     0.1865   0.875   0.375
S61     S     0.375   0.875   0.1291
Ne62     Ne     0.375   0.875   0.1865
S63     S     0.125   0.625   0.3791
Ne64     Ne     0.125   0.625   0.4365
S65     S     0.625   0.625   0.3709
Ne66     Ne     0.625   0.625   0.3135
Li67     Li     0.4144   0.8356   0.1997
Li68     Li     0.5856   0.8003   0.1644
Mg69     Mg     0.4688   0.8519   0.2079
B70     B     0.5   0.8382   0.1618
Mg71     Mg     0.5312   0.7921   0.1481
Mg72     Mg     0.5421   0.8519   0.2812
B73     B     0.5882   0.8382   0.25
Mg74     Mg     0.6019   0.7921   0.2188
Mg75     Mg     0.6019   0.7188   0.2921
B76     B     0.5882   0.75   0.3382
Mg77     Mg     0.5421   0.7812   0.3519
Li78     Li     0.5503   0.8356   0.3356
Li79     Li     0.4144   0.6997   0.3356
Mg80     Mg     0.4579   0.6481   0.2188
B81     B     0.4118   0.6618   0.25
Mg82     Mg     0.3981   0.7079   0.2812
Li83     Li     0.5856   0.6644   0.3003
Mg84     Mg     0.5312   0.6481   0.2921
B85     B     0.5   0.6618   0.3382
Mg86     Mg     0.4688   0.7079   0.3519
Mg87     Mg     0.3981   0.7812   0.2079
B88     B     0.4118   0.75   0.1618
Mg89     Mg     0.4579   0.7188   0.1481
Li90     Li     0.4497   0.6644   0.1644
S91     S     0.375   0.6291   0.375
Ne92     Ne     0.375   0.6865   0.375
Mg93     Mg     0.2079   0.7812   0.3981
B94     B     0.1618   0.75   0.4118
Mg95     Mg     0.1481   0.7188   0.4579
Li96     Li     0.1997   0.8356   0.4144
Mg97     Mg     0.2079   0.8519   0.4688
B98     B     0.1618   0.8382   0.5
Mg99     Mg     0.1481   0.7921   0.5312
Li100     Li     0.1644   0.8003   0.5856
Mg101     Mg     0.2812   0.8519   0.5421
B102     B     0.25   0.8382   0.5882
Mg103     Mg     0.2188   0.7921   0.6019
Li104     Li     0.3356   0.8356   0.5503
Mg105     Mg     0.2188   0.6481   0.4579
B106     B     0.25   0.6618   0.4118
Mg107     Mg     0.2812   0.7079   0.3981
Li108     Li     0.1644   0.6644   0.4497
Mg109     Mg     0.3519   0.7812   0.5421
B110     B     0.3382   0.75   0.5882
Mg111     Mg     0.2921   0.7188   0.6019
Li112     Li     0.3003   0.6644   0.5856
Mg113     Mg     0.2921   0.6481   0.5312
B114     B     0.3382   0.6618   0.5
Mg115     Mg     0.3519   0.7079   0.4688
Li116     Li     0.3356   0.6997   0.4144
S117     S     0.3709   0.625   0.625
Ne118     Ne     0.3135   0.625   0.625
S119     S     0.3791   0.625   0.125
Ne120     Ne     0.4365   0.625   0.125
S121     S     0.375   0.6209   0.875
Ne122     Ne     0.375   0.5635   0.875
Mg123     Mg     0.6019   0.5312   0.9579
B124     B     0.5882   0.5   0.9118
Mg125     Mg     0.5421   0.4688   0.8981
Mg126     Mg     0.4579   0.5312   0.1019
B127     B     0.4118   0.5   0.0882
Mg128     Mg     0.3981   0.4688   0.0421
Li129     Li     0.4144   0.4144   0.0503
Mg130     Mg     0.4688   0.3981   0.0421
B131     B     0.5   0.4118   0.0882
Mg132     Mg     0.5312   0.4579   0.1019
Li133     Li     0.5503   0.4144   0.9144
Mg134     Mg     0.5421   0.3981   0.9688
B135     B     0.5882   0.4118   0.0
Mg136     Mg     0.6019   0.4579   0.0312
Li137     Li     0.5856   0.4497   0.0856
Li138     Li     0.4497   0.5856   0.0856
Mg139     Mg     0.3981   0.5421   0.9688
B140     B     0.4118   0.5882   0.0
Mg141     Mg     0.4579   0.6019   0.0312
Li142     Li     0.4144   0.5503   0.9144
Li143     Li     0.5856   0.5856   0.9497
Mg144     Mg     0.5312   0.6019   0.9579
B145     B     0.5   0.5882   0.9118
Mg146     Mg     0.4688   0.5421   0.8981
S147     S     0.375   0.375   0.1209
Ne148     Ne     0.375   0.375   0.0635
S149     S     0.6209   0.375   0.875
Ne150     Ne     0.5635   0.375   0.875
S151     S     0.875   0.1291   0.375
Ne152     Ne     0.875   0.1865   0.375
S153     S     0.875   0.375   0.1291
Ne154     Ne     0.875   0.375   0.1865
Mg155     Mg     0.7812   0.5421   0.3519
B156     B     0.75   0.5882   0.3382
Mg157     Mg     0.7188   0.6019   0.2921
Li158     Li     0.6644   0.5856   0.3003
Mg159     Mg     0.6481   0.5312   0.2921
B160     B     0.6618   0.5   0.3382
Mg161     Mg     0.7079   0.4688   0.3519
Li162     Li     0.6997   0.4144   0.3356
Li163     Li     0.6644   0.4497   0.1644
Mg164     Mg     0.7188   0.4579   0.1481
B165     B     0.75   0.4118   0.1618
Mg166     Mg     0.7812   0.3981   0.2079
Li167     Li     0.8356   0.4144   0.1997
Mg168     Mg     0.6481   0.4579   0.2188
B169     B     0.6618   0.4118   0.25
Mg170     Mg     0.7079   0.3981   0.2812
Li171     Li     0.8356   0.5503   0.3356
Mg172     Mg     0.8519   0.5421   0.2812
B173     B     0.8382   0.5882   0.25
Mg174     Mg     0.7921   0.6019   0.2188
Li175     Li     0.8003   0.5856   0.1644
Mg176     Mg     0.8519   0.4688   0.2079
B177     B     0.8382   0.5   0.1618
Mg178     Mg     0.7921   0.5312   0.1481
Li179     Li     0.8356   0.1997   0.4144
Mg180     Mg     0.8519   0.2079   0.4688
B181     B     0.8382   0.1618   0.5
Mg182     Mg     0.7921   0.1481   0.5312
Mg183     Mg     0.6481   0.2921   0.5312
B184     B     0.6618   0.3382   0.5
Mg185     Mg     0.7079   0.3519   0.4688
Li186     Li     0.8003   0.1644   0.5856
Mg187     Mg     0.8519   0.2812   0.5421
B188     B     0.8382   0.25   0.5882
Mg189     Mg     0.7921   0.2188   0.6019
Mg190     Mg     0.7188   0.2921   0.6019
B191     B     0.75   0.3382   0.5882
Mg192     Mg     0.7812   0.3519   0.5421
Li193     Li     0.8356   0.3356   0.5503
Li194     Li     0.6644   0.3003   0.5856
Mg195     Mg     0.7812   0.2079   0.3981
B196     B     0.75   0.1618   0.4118
Mg197     Mg     0.7188   0.1481   0.4579
Li198     Li     0.6644   0.1644   0.4497
Mg199     Mg     0.6481   0.2188   0.4579
B200     B     0.6618   0.25   0.4118
Mg201     Mg     0.7079   0.2812   0.3981
Li202     Li     0.6997   0.3356   0.4144
S203     S     0.6291   0.375   0.375
Ne204     Ne     0.6865   0.375   0.375
S205     S     0.125   0.3709   0.125
Ne206     Ne     0.125   0.3135   0.125
Mg207     Mg     0.2188   0.1481   0.9579
B208     B     0.25   0.1618   0.9118
Mg209     Mg     0.2812   0.2079   0.8981
Mg210     Mg     0.2812   0.3519   0.0421
B211     B     0.25   0.3382   0.0882
Mg212     Mg     0.2188   0.2921   0.1019
Mg213     Mg     0.2079   0.3519   0.9688
B214     B     0.1618   0.3382   0.0
Mg215     Mg     0.1481   0.2921   0.0312
Li216     Li     0.1997   0.3356   0.9144
Li217     Li     0.1644   0.3003   0.0856
Mg218     Mg     0.3519   0.2079   0.9688
B219     B     0.3382   0.1618   0.0
Mg220     Mg     0.2921   0.1481   0.0312
Li221     Li     0.3356   0.1997   0.9144
Li222     Li     0.3003   0.1644   0.0856
Li223     Li     0.3356   0.3356   0.0503
Mg224     Mg     0.2921   0.2188   0.1019
B225     B     0.3382   0.25   0.0882
Mg226     Mg     0.3519   0.2812   0.0421
Mg227     Mg     0.1481   0.2188   0.9579
B228     B     0.1618   0.25   0.9118
Mg229     Mg     0.2079   0.2812   0.8981
Li230     Li     0.1644   0.1644   0.9497
S231     S     0.3709   0.125   0.125
Ne232     Ne     0.3135   0.125   0.125
Mg233     Mg     0.2079   0.9688   0.3519
B234     B     0.1618   0.0   0.3382
Mg235     Mg     0.1481   0.0312   0.2921
Li236     Li     0.1997   0.9144   0.3356
Li237     Li     0.1644   0.0856   0.3003
Mg238     Mg     0.1481   0.9579   0.2188
B239     B     0.1618   0.9118   0.25
Mg240     Mg     0.2079   0.8981   0.2812
Mg241     Mg     0.2812   0.0421   0.3519
B242     B     0.25   0.0882   0.3382
Mg243     Mg     0.2188   0.1019   0.2921
Mg244     Mg     0.3519   0.9688   0.2079
B245     B     0.3382   0.0   0.1618
Mg246     Mg     0.2921   0.0312   0.1481
Li247     Li     0.3356   0.9144   0.1997
Li248     Li     0.3003   0.0856   0.1644
Mg249     Mg     0.2921   0.1019   0.2188
B250     B     0.3382   0.0882   0.25
Mg251     Mg     0.3519   0.0421   0.2812
Li252     Li     0.3356   0.0503   0.3356
Mg253     Mg     0.2188   0.9579   0.1481
B254     B     0.25   0.9118   0.1618
Mg255     Mg     0.2812   0.8981   0.2079
Li256     Li     0.1644   0.9497   0.1644
S257     S     0.125   0.125   0.3709
Ne258     Ne     0.125   0.125   0.3135
S259     S     0.875   0.6209   0.375
Ne260     Ne     0.875   0.5635   0.375
S261     S     0.875   0.375   0.6209
Ne262     Ne     0.875   0.375   0.5635
Mg263     Mg     0.9688   0.2079   0.3519
B264     B     0.0   0.1618   0.3382
Mg265     Mg     0.0312   0.1481   0.2921
Li266     Li     0.9144   0.1997   0.3356
Li267     Li     0.0856   0.1644   0.3003
Mg268     Mg     0.1019   0.2188   0.2921
B269     B     0.0882   0.25   0.3382
Mg270     Mg     0.0421   0.2812   0.3519
Mg271     Mg     0.0421   0.3519   0.2812
B272     B     0.0882   0.3382   0.25
Mg273     Mg     0.1019   0.2921   0.2188
Li274     Li     0.0503   0.3356   0.3356
Mg275     Mg     0.9579   0.1481   0.2188
B276     B     0.9118   0.1618   0.25
Mg277     Mg     0.8981   0.2079   0.2812
Li278     Li     0.9497   0.1644   0.1644
Mg279     Mg     0.9579   0.2188   0.1481
B280     B     0.9118   0.25   0.1618
Mg281     Mg     0.8981   0.2812   0.2079
Mg282     Mg     0.9688   0.3519   0.2079
B283     B     0.0   0.3382   0.1618
Mg284     Mg     0.0312   0.2921   0.1481
Li285     Li     0.9144   0.3356   0.1997
Li286     Li     0.0856   0.3003   0.1644
Mg287     Mg     0.9579   0.6019   0.5312
B288     B     0.9118   0.5882   0.5
Mg289     Mg     0.8981   0.5421   0.4688
Li290     Li     0.9497   0.5856   0.5856
Mg291     Mg     0.9579   0.5312   0.6019
B292     B     0.9118   0.5   0.5882
Mg293     Mg     0.8981   0.4688   0.5421
Li294     Li     0.0856   0.4497   0.5856
Mg295     Mg     0.9688   0.3981   0.5421
B296     B     0.0   0.4118   0.5882
Mg297     Mg     0.0312   0.4579   0.6019
Li298     Li     0.9144   0.4144   0.5503
Mg299     Mg     0.9688   0.5421   0.3981
B300     B     0.0   0.5882   0.4118
Mg301     Mg     0.0312   0.6019   0.4579
Li302     Li     0.9144   0.5503   0.4144
Li303     Li     0.0856   0.5856   0.4497
Mg304     Mg     0.0421   0.4688   0.3981
B305     B     0.0882   0.5   0.4118
Mg306     Mg     0.1019   0.5312   0.4579
Mg307     Mg     0.1019   0.4579   0.5312
B308     B     0.0882   0.4118   0.5
Mg309     Mg     0.0421   0.3981   0.4688
Li310     Li     0.0503   0.4144   0.4144
S311     S     0.1209   0.375   0.375
Ne312     Ne     0.0635   0.375   0.375
S313     S     0.375   0.1291   0.875
Ne314     Ne     0.375   0.1865   0.875
Mg315     Mg     0.5421   0.3519   0.7812
B316     B     0.5882   0.3382   0.75
Mg317     Mg     0.6019   0.2921   0.7188
Li318     Li     0.5856   0.3003   0.6644
Mg319     Mg     0.5312   0.2921   0.6481
B320     B     0.5   0.3382   0.6618
Mg321     Mg     0.4688   0.3519   0.7079
Li322     Li     0.4144   0.3356   0.6997
Mg323     Mg     0.4579   0.1481   0.7188
B324     B     0.4118   0.1618   0.75
Mg325     Mg     0.3981   0.2079   0.7812
Li326     Li     0.4144   0.1997   0.8356
Li327     Li     0.4497   0.1644   0.6644
Mg328     Mg     0.4579   0.2188   0.6481
B329     B     0.4118   0.25   0.6618
Mg330     Mg     0.3981   0.2812   0.7079
Li331     Li     0.5503   0.3356   0.8356
Mg332     Mg     0.5421   0.2812   0.8519
B333     B     0.5882   0.25   0.8382
Mg334     Mg     0.6019   0.2188   0.7921
Li335     Li     0.5856   0.1644   0.8003
Mg336     Mg     0.4688   0.2079   0.8519
B337     B     0.5   0.1618   0.8382
Mg338     Mg     0.5312   0.1481   0.7921
S339     S     0.125   0.3791   0.625
Ne340     Ne     0.125   0.4365   0.625
S341     S     0.1291   0.375   0.875
Ne342     Ne     0.1865   0.375   0.875
Mg343     Mg     0.2079   0.3981   0.7812
B344     B     0.1618   0.4118   0.75
Mg345     Mg     0.1481   0.4579   0.7188
Li346     Li     0.1997   0.4144   0.8356
Mg347     Mg     0.2812   0.5421   0.8519
B348     B     0.25   0.5882   0.8382
Mg349     Mg     0.2188   0.6019   0.7921
Li350     Li     0.1644   0.5856   0.8003
Mg351     Mg     0.2079   0.4688   0.8519
B352     B     0.1618   0.5   0.8382
Mg353     Mg     0.1481   0.5312   0.7921
Mg354     Mg     0.2921   0.5312   0.6481
B355     B     0.3382   0.5   0.6618
Mg356     Mg     0.3519   0.4688   0.7079
Li357     Li     0.3003   0.5856   0.6644
Mg358     Mg     0.2921   0.6019   0.7188
B359     B     0.3382   0.5882   0.75
Mg360     Mg     0.3519   0.5421   0.7812
Li361     Li     0.3356   0.5503   0.8356
Li362     Li     0.1644   0.4497   0.6644
Mg363     Mg     0.2188   0.4579   0.6481
B364     B     0.25   0.4118   0.6618
Mg365     Mg     0.2812   0.3981   0.7079
Li366     Li     0.3356   0.4144   0.6997
S367     S     0.375   0.375   0.6291
Ne368     Ne     0.375   0.375   0.6865
Li369     Li     0.9497   0.0856   0.0856
Mg370     Mg     0.8981   0.0421   0.9688
B371     B     0.9118   0.0882   0.0
Mg372     Mg     0.9579   0.1019   0.0312
Mg373     Mg     0.0312   0.1019   0.9579
B374     B     0.0   0.0882   0.9118
Mg375     Mg     0.9688   0.0421   0.8981
Li376     Li     0.9144   0.0503   0.9144
Mg377     Mg     0.1019   0.0312   0.9579
B378     B     0.0882   0.0   0.9118
Mg379     Mg     0.0421   0.9688   0.8981
Li380     Li     0.0856   0.0856   0.9497
Mg381     Mg     0.1019   0.9579   0.0312
B382     B     0.0882   0.9118   0.0
Mg383     Mg     0.0421   0.8981   0.9688
Li384     Li     0.0503   0.9144   0.9144
Li385     Li     0.0856   0.9497   0.0856
Mg386     Mg     0.9579   0.0312   0.1019
B387     B     0.9118   0.0   0.0882
Mg388     Mg     0.8981   0.9688   0.0421
Li389     Li     0.9144   0.9144   0.0503
Mg390     Mg     0.0312   0.9579   0.1019
B391     B     0.0   0.9118   0.0882
Mg392     Mg     0.9688   0.8981   0.0421
S393     S     0.8791   0.125   0.125
Ne394     Ne     0.9365   0.125   0.125
S395     S     0.875   0.875   0.1209
Ne396     Ne     0.875   0.875   0.0635
S397     S     0.6291   0.875   0.875
Ne398     Ne     0.6865   0.875   0.875
Mg399     Mg     0.7188   0.6481   0.9579
B400     B     0.75   0.6618   0.9118
Mg401     Mg     0.7812   0.7079   0.8981
Mg402     Mg     0.6481   0.7921   0.0312
B403     B     0.6618   0.8382   0.0
Mg404     Mg     0.7079   0.8519   0.9688
Li405     Li     0.8356   0.8356   0.0503
Mg406     Mg     0.7812   0.8519   0.0421
B407     B     0.75   0.8382   0.0882
Mg408     Mg     0.7188   0.7921   0.1019
Li409     Li     0.6644   0.8003   0.0856
Li410     Li     0.6644   0.6644   0.9497
Mg411     Mg     0.6481   0.7188   0.9579
B412     B     0.6618   0.75   0.9118
Mg413     Mg     0.7079   0.7812   0.8981
Li414     Li     0.6997   0.8356   0.9144
Mg415     Mg     0.7921   0.7188   0.1019
B416     B     0.8382   0.75   0.0882
Mg417     Mg     0.8519   0.7812   0.0421
Li418     Li     0.8003   0.6644   0.0856
Li419     Li     0.8356   0.6997   0.9144
Mg420     Mg     0.7921   0.6481   0.0312
B421     B     0.8382   0.6618   0.0
Mg422     Mg     0.8519   0.7079   0.9688
S423     S     0.8709   0.625   0.125
Ne424     Ne     0.8135   0.625   0.125
S425     S     0.875   0.6291   0.875
Ne426     Ne     0.875   0.6865   0.875
Li427     Li     0.0503   0.8356   0.8356
Mg428     Mg     0.0421   0.7812   0.8519
B429     B     0.0882   0.75   0.8382
Mg430     Mg     0.1019   0.7188   0.7921
Mg431     Mg     0.9579   0.7188   0.6481
B432     B     0.9118   0.75   0.6618
Mg433     Mg     0.8981   0.7812   0.7079
Li434     Li     0.0856   0.6644   0.8003
Mg435     Mg     0.0312   0.6481   0.7921
B436     B     0.0   0.6618   0.8382
Mg437     Mg     0.9688   0.7079   0.8519
Li438     Li     0.9497   0.6644   0.6644
Mg439     Mg     0.9579   0.6481   0.7188
B440     B     0.9118   0.6618   0.75
Mg441     Mg     0.8981   0.7079   0.7812
Li442     Li     0.9144   0.6997   0.8356
Mg443     Mg     0.1019   0.7921   0.7188
B444     B     0.0882   0.8382   0.75
Mg445     Mg     0.0421   0.8519   0.7812
Li446     Li     0.9144   0.8356   0.6997
Li447     Li     0.0856   0.8003   0.6644
Mg448     Mg     0.0312   0.7921   0.6481
B449     B     0.0   0.8382   0.6618
Mg450     Mg     0.9688   0.8519   0.7079
S451     S     0.125   0.625   0.8709
Ne452     Ne     0.125   0.625   0.8135
S453     S     0.875   0.875   0.6291
Ne454     Ne     0.875   0.875   0.6865
Li455     Li     0.8356   0.0503   0.8356
Mg456     Mg     0.8519   0.0421   0.7812
B457     B     0.8382   0.0882   0.75
Mg458     Mg     0.7921   0.1019   0.7188
Mg459     Mg     0.6481   0.9579   0.7188
B460     B     0.6618   0.9118   0.75
Mg461     Mg     0.7079   0.8981   0.7812
Li462     Li     0.6644   0.9497   0.6644
Mg463     Mg     0.7188   0.9579   0.6481
B464     B     0.75   0.9118   0.6618
Mg465     Mg     0.7812   0.8981   0.7079
Li466     Li     0.8003   0.0856   0.6644
Mg467     Mg     0.7921   0.0312   0.6481
B468     B     0.8382   0.0   0.6618
Mg469     Mg     0.8519   0.9688   0.7079
Li470     Li     0.8356   0.9144   0.6997
Mg471     Mg     0.7188   0.1019   0.7921
B472     B     0.75   0.0882   0.8382
Mg473     Mg     0.7812   0.0421   0.8519
Li474     Li     0.6997   0.9144   0.8356
Li475     Li     0.6644   0.0856   0.8003
Mg476     Mg     0.6481   0.0312   0.7921
B477     B     0.6618   0.0   0.8382
Mg478     Mg     0.7079   0.9688   0.8519
S479     S     0.8709   0.125   0.625
Ne480     Ne     0.8135   0.125   0.625
He481     He     0.7438   0.0062   0.8763
He482     He     0.8763   0.0062   0.7438
He483     He     0.8763   0.2438   0.5062
He484     He     0.0062   0.8763   0.7438
He485     He     0.2438   0.8763   0.5062
He486     He     0.5062   0.2438   0.8763
He487     He     0.5062   0.8763   0.2438
He488     He     0.2438   0.5062   0.8763
He489     He     0.8763   0.5062   0.2438
He490     He     0.8763   0.7438   0.0062
He491     He     0.0062   0.7438   0.8763
He492     He     0.7438   0.8763   0.0062
He493     He     0.7438   0.5062   0.3763
He494     He     0.2438   0.0062   0.3763
He495     He     0.9938   0.4938   0.6263
He496     He     0.6263   0.4938   0.9938
He497     He     0.6263   0.9938   0.4938
He498     He     0.9938   0.6263   0.4938
He499     He     0.4938   0.6263   0.9938
He500     He     0.7562   0.6263   0.2562
He501     He     0.6263   0.7562   0.2562
He502     He     0.7562   0.2562   0.6263
He503     He     0.6263   0.2562   0.7562
He504     He     0.2562   0.6263   0.7562
He505     He     0.9938   0.2562   0.1237
He506     He     0.1237   0.9938   0.2562
He507     He     0.1237   0.2562   0.9938
He508     He     0.1237   0.7562   0.4938
He509     He     0.1237   0.4938   0.7562
He510     He     0.2562   0.9938   0.1237
He511     He     0.9938   0.1237   0.2562
He512     He     0.2562   0.1237   0.9938
He513     He     0.7562   0.1237   0.4938
He514     He     0.4938   0.7562   0.1237
He515     He     0.9938   0.1263   0.9938
He516     He     0.9938   0.9938   0.1263
He517     He     0.7562   0.4938   0.1237
He518     He     0.4938   0.1237   0.7562
He519     He     0.1263   0.9938   0.9938
He520     He     0.4938   0.4938   0.1263
He521     He     0.2562   0.2562   0.1263
He522     He     0.7562   0.1263   0.7562
He523     He     0.1263   0.7562   0.7562
He524     He     0.1263   0.4938   0.4938
He525     He     0.4938   0.1263   0.4938
He526     He     0.2562   0.1263   0.2562
He527     He     0.1263   0.2562   0.2562
He528     He     0.7562   0.7562   0.1263
He529     He     0.2438   0.2438   0.8737
He530     He     0.2562   0.4938   0.6237
He531     He     0.2438   0.3763   0.0062
He532     He     0.5062   0.5062   0.8737
He533     He     0.0062   0.3737   0.5062
He534     He     0.0062   0.2438   0.3763
He535     He     0.4938   0.9938   0.6263
He536     He     0.3763   0.0062   0.2438
He537     He     0.0062   0.3763   0.2438
He538     He     0.0062   0.8737   0.0062
He539     He     0.3737   0.0062   0.5062
He540     He     0.3737   0.5062   0.0062
He541     He     0.2438   0.8737   0.2438
He542     He     0.0062   0.5062   0.3737
He543     He     0.3763   0.2438   0.0062
He544     He     0.7562   0.9938   0.6237
He545     He     0.8737   0.2438   0.2438
He546     He     0.4938   0.6237   0.2562
He547     He     0.6237   0.7562   0.9938
He548     He     0.6237   0.4938   0.2562
He549     He     0.0062   0.0062   0.8737
He550     He     0.8737   0.0062   0.0062
He551     He     0.9938   0.7562   0.6237
He552     He     0.5062   0.0062   0.3737
He553     He     0.6237   0.9938   0.7562
He554     He     0.3737   0.2438   0.7438
He555     He     0.2438   0.3737   0.7438
He556     He     0.2438   0.7438   0.3737
He557     He     0.3737   0.7438   0.2438
He558     He     0.5062   0.3737   0.0062
He559     He     0.5062   0.3763   0.7438
He560     He     0.3763   0.5062   0.7438
He561     He     0.7438   0.3737   0.2438
He562     He     0.2562   0.7562   0.6263
He563     He     0.5062   0.8737   0.5062
He564     He     0.3763   0.7438   0.5062
He565     He     0.5062   0.7438   0.3763
He566     He     0.7438   0.2438   0.3737
He567     He     0.8737   0.7438   0.7438
He568     He     0.8737   0.5062   0.5062
He569     He     0.7438   0.8737   0.7438
He570     He     0.6237   0.2562   0.4938
He571     He     0.7438   0.3763   0.5062
He572     He     0.7438   0.7438   0.8737
He573     He     0.7562   0.6237   0.9938
He574     He     0.4938   0.2562   0.6237
He575     He     0.9938   0.6237   0.7562
He576     He     0.2562   0.6237   0.4938
C577     C     0.4067   0.4067   0.5934
C578     C     0.4067   0.5934   0.4067
C579     C     0.5934   0.4067   0.4067
C580     C     0.3433   0.1566   0.4067
C581     C     0.5934   0.3433   0.3433
C582     C     0.4067   0.8433   0.6566
C583     C     0.6566   0.4067   0.8433
C584     C     0.3433   0.0934   0.8433
C585     C     0.8433   0.6566   0.4067
C586     C     0.0934   0.8433   0.3433
C587     C     0.4067   0.6566   0.8433
C588     C     0.6566   0.8433   0.4067
C589     C     0.6567   0.9066   0.1567
C590     C     0.1567   0.6567   0.9066
C591     C     0.8433   0.8433   0.5934
C592     C     0.5934   0.8433   0.8433
C593     C     0.8433   0.5934   0.8433
C594     C     0.1566   0.4067   0.3433
C595     C     0.4067   0.3433   0.1566
C596     C     0.3434   0.6567   0.0933
C597     C     0.8433   0.4067   0.6566
C598     C     0.0933   0.3434   0.6567
C599     C     0.0934   0.3433   0.8433
C600     C     0.8433   0.3433   0.0934
C601     C     0.1566   0.3433   0.4067
C602     C     0.9066   0.5933   0.0933
C603     C     0.8434   0.0933   0.1567
C604     C     0.4067   0.1566   0.3433
C605     C     0.0933   0.8434   0.1567
C606     C     0.0933   0.1567   0.8434
C607     C     0.0933   0.4066   0.0933
C608     C     0.4066   0.0933   0.0933
C609     C     0.6567   0.0933   0.3434
C610     C     0.0933   0.0933   0.4066
C611     C     0.6567   0.1567   0.9066
C612     C     0.3433   0.5934   0.3433
C613     C     0.5933   0.0933   0.9066
C614     C     0.9066   0.0933   0.5933
C615     C     0.0933   0.9066   0.5933
C616     C     0.3433   0.3433   0.5934
C617     C     0.0933   0.5933   0.9066
C618     C     0.5933   0.9066   0.0933
C619     C     0.6567   0.3434   0.0933
C620     C     0.8434   0.5933   0.6567
C621     C     0.8434   0.6567   0.5933
C622     C     0.5933   0.6567   0.8434
C623     C     0.8434   0.1567   0.0933
C624     C     0.6567   0.8434   0.5933
C625     C     0.9066   0.1567   0.6567
C626     C     0.1567   0.9066   0.6567
C627     C     0.5933   0.8434   0.6567
C628     C     0.6567   0.5933   0.8434
C629     C     0.0933   0.6567   0.3434
C630     C     0.9066   0.6567   0.1567
C631     C     0.3434   0.0933   0.6567
C632     C     0.3433   0.4067   0.1566
C633     C     0.1567   0.3434   0.5933
C634     C     0.5933   0.1567   0.3434
C635     C     0.3434   0.5933   0.1567
C636     C     0.1567   0.8434   0.0933
C637     C     0.9067   0.3433   0.6566
C638     C     0.5933   0.3434   0.1567
C639     C     0.3434   0.1567   0.5933
C640     C     0.9067   0.6566   0.3433
C641     C     0.3433   0.6566   0.9067
C642     C     0.5933   0.5933   0.4066
C643     C     0.5933   0.4066   0.5933
C644     C     0.4066   0.6567   0.6567
C645     C     0.4066   0.5933   0.5933
C646     C     0.1567   0.5933   0.3434
C647     C     0.1567   0.1567   0.4066
C648     C     0.4066   0.1567   0.1567
C649     C     0.6567   0.4066   0.6567
C650     C     0.6566   0.3433   0.9067
C651     C     0.6567   0.6567   0.4066
C652     C     0.1567   0.0933   0.8434
C653     C     0.4067   0.0934   0.9067
C654     C     0.0934   0.9067   0.4067
C655     C     0.0934   0.4067   0.9067
C656     C     0.4067   0.9067   0.0934
C657     C     0.9067   0.4067   0.0934
C658     C     0.9067   0.0934   0.4067
C659     C     0.8433   0.0934   0.3433
C660     C     0.3433   0.8433   0.0934
C661     C     0.3433   0.9067   0.6566
C662     C     0.1567   0.4066   0.1567
C663     C     0.6566   0.9067   0.3433
C664     C     0.1566   0.9067   0.8433
C665     C     0.8433   0.1566   0.9067
C666     C     0.9067   0.8433   0.1566
C667     C     0.5934   0.9067   0.9067
C668     C     0.9067   0.5934   0.9067
C669     C     0.9067   0.9067   0.5934
C670     C     0.9067   0.1566   0.8433
C671     C     0.8433   0.9067   0.1566
C672     C     0.1566   0.8433   0.9067
V673     V     0.3344   0.6291   0.0439
V674     V     0.3709   0.6656   0.9561
N675     N     0.3713   0.6287   0.0
V676     V     0.0439   0.3344   0.6291
V677     V     0.9561   0.3709   0.6656
N678     N     0.0   0.3713   0.6287
V679     V     0.7061   0.3344   0.1209
V680     V     0.7939   0.3709   0.0844
N681     N     0.75   0.3713   0.1213
V682     V     0.3344   0.1209   0.7061
V683     V     0.3709   0.0844   0.7939
N684     N     0.3713   0.1213   0.75
V685     V     0.1656   0.4561   0.3709
V686     V     0.1291   0.5439   0.3344
N687     N     0.1287   0.5   0.3713
V688     V     0.4561   0.3709   0.1656
V689     V     0.5439   0.3344   0.1291
N690     N     0.5   0.3713   0.1287
V691     V     0.3344   0.1291   0.5439
V692     V     0.3709   0.1656   0.4561
N693     N     0.3713   0.1287   0.5
V694     V     0.6291   0.3344   0.0439
V695     V     0.6656   0.3709   0.9561
N696     N     0.6287   0.3713   0.0
V697     V     0.0844   0.3709   0.7939
V698     V     0.1209   0.3344   0.7061
N699     N     0.1213   0.3713   0.75
V700     V     0.3709   0.7939   0.0844
V701     V     0.3344   0.7061   0.1209
N702     N     0.3713   0.75   0.1213
V703     V     0.0439   0.6291   0.3344
V704     V     0.9561   0.6656   0.3709
N705     N     0.0   0.6287   0.3713
V706     V     0.7939   0.0844   0.3709
V707     V     0.7061   0.1209   0.3344
N708     N     0.75   0.1213   0.3713
V709     V     0.1209   0.7061   0.3344
V710     V     0.0844   0.7939   0.3709
N711     N     0.1213   0.75   0.3713
V712     V     0.5844   0.3709   0.2939
V713     V     0.6209   0.3344   0.2061
N714     N     0.6213   0.3713   0.25
V715     V     0.3709   0.2939   0.5844
V716     V     0.3344   0.2061   0.6209
N717     N     0.3713   0.25   0.6213
V718     V     0.6291   0.9156   0.2061
V719     V     0.6656   0.8791   0.2939
N720     N     0.6287   0.8787   0.25
V721     V     0.9156   0.2061   0.6291
V722     V     0.8791   0.2939   0.6656
N723     N     0.8787   0.25   0.6287
V724     V     0.2061   0.6291   0.9156
V725     V     0.2939   0.6656   0.8791
N726     N     0.25   0.6287   0.8787
V727     V     0.4561   0.8709   0.6656
V728     V     0.5439   0.8344   0.6291
N729     N     0.5   0.8713   0.6287
V730     V     0.0844   0.4561   0.8791
V731     V     0.1209   0.5439   0.9156
N732     N     0.1213   0.5   0.8787
V733     V     0.0844   0.8791   0.4561
V734     V     0.1209   0.9156   0.5439
N735     N     0.1213   0.8787   0.5
V736     V     0.1656   0.3709   0.4561
V737     V     0.1291   0.3344   0.5439
N738     N     0.1287   0.3713   0.5
V739     V     0.4561   0.0844   0.8791
V740     V     0.5439   0.1209   0.9156
N741     N     0.5   0.1213   0.8787
V742     V     0.8709   0.7939   0.5844
V743     V     0.8344   0.7061   0.6209
N744     N     0.8713   0.75   0.6213
V745     V     0.4561   0.1656   0.3709
V746     V     0.5439   0.1291   0.3344
N747     N     0.5   0.1287   0.3713
V748     V     0.4561   0.6656   0.8709
V749     V     0.5439   0.6291   0.8344
N750     N     0.5   0.6287   0.8713
V751     V     0.3709   0.4561   0.1656
V752     V     0.3344   0.5439   0.1291
N753     N     0.3713   0.5   0.1287
V754     V     0.4561   0.8791   0.0844
V755     V     0.5439   0.9156   0.1209
N756     N     0.5   0.8787   0.1213
V757     V     0.6656   0.8709   0.4561
V758     V     0.6291   0.8344   0.5439
N759     N     0.6287   0.8713   0.5
V760     V     0.3344   0.0439   0.6291
V761     V     0.3709   0.9561   0.6656
N762     N     0.3713   0.0   0.6287
V763     V     0.9156   0.1209   0.5439
V764     V     0.8791   0.0844   0.4561
N765     N     0.8787   0.1213   0.5
V766     V     0.5844   0.8709   0.7939
V767     V     0.6209   0.8344   0.7061
N768     N     0.6213   0.8713   0.75
V769     V     0.3791   0.7939   0.6656
V770     V     0.4156   0.7061   0.6291
N771     N     0.3787   0.75   0.6287
V772     V     0.8791   0.4561   0.0844
V773     V     0.9156   0.5439   0.1209
N774     N     0.8787   0.5   0.1213
V775     V     0.6291   0.0439   0.3344
V776     V     0.6656   0.9561   0.3709
N777     N     0.6287   0.0   0.3713
V778     V     0.3791   0.1656   0.2939
V779     V     0.4156   0.1291   0.2061
N780     N     0.3787   0.1287   0.25
V781     V     0.2061   0.8344   0.1209
V782     V     0.2939   0.8709   0.0844
N783     N     0.25   0.8713   0.1213
V784     V     0.2939   0.3791   0.1656
V785     V     0.2061   0.4156   0.1291
N786     N     0.25   0.3787   0.1287
V787     V     0.8344   0.6291   0.5439
V788     V     0.8709   0.6656   0.4561
N789     N     0.8713   0.6287   0.5
V790     V     0.8344   0.1291   0.0439
V791     V     0.8709   0.1656   0.9561
N792     N     0.8713   0.1287   0.0
V793     V     0.7061   0.9156   0.1291
V794     V     0.7939   0.8791   0.1656
N795     N     0.75   0.8787   0.1287
V796     V     0.9156   0.7061   0.1291
V797     V     0.8791   0.7939   0.1656
N798     N     0.8787   0.75   0.1287
V799     V     0.8344   0.0439   0.1291
V800     V     0.8709   0.9561   0.1656
N801     N     0.8713   0.0   0.1287
V802     V     0.8791   0.6656   0.2939
V803     V     0.9156   0.6291   0.2061
N804     N     0.8787   0.6287   0.25
V805     V     0.6291   0.7061   0.4156
V806     V     0.6656   0.7939   0.3791
N807     N     0.6287   0.75   0.3787
V808     V     0.0439   0.9156   0.6209
V809     V     0.9561   0.8791   0.5844
N810     N     0.0   0.8787   0.6213
V811     V     0.9156   0.0439   0.6209
V812     V     0.8791   0.9561   0.5844
N813     N     0.8787   0.0   0.6213
V814     V     0.7061   0.8344   0.6209
V815     V     0.7939   0.8709   0.5844
N816     N     0.75   0.8713   0.6213
Be817     Be     0.7008   0.9577   0.4577
Na818     Na     0.6835   0.9963   0.4963
Er819     Er     0.7663   0.9837   0.3928
O820     O     0.7839   0.0374   0.4022
O821     O     0.7126   0.9661   0.4022
Na822     Na     0.7537   0.0665   0.4963
Be823     Be     0.7923   0.0492   0.4577
O824     O     0.8478   0.9661   0.5374
O825     O     0.8478   0.0374   0.4661
Er826     Er     0.8572   0.9837   0.4837
Er827     Er     0.7663   0.8928   0.4837
O828     O     0.7126   0.9022   0.4661
O829     O     0.7839   0.9022   0.5374
Be830     Be     0.7923   0.9577   0.5492
Na831     Na     0.7537   0.9963   0.5665
Be832     Be     0.9577   0.7923   0.5492
Na833     Na     0.9963   0.7537   0.5665
O834     O     0.9022   0.7839   0.5374
O835     O     0.9022   0.7126   0.4661
Er836     Er     0.8928   0.7663   0.4837
O837     O     0.9661   0.8478   0.5374
O838     O     0.0374   0.8478   0.4661
Er839     Er     0.9837   0.8572   0.4837
Be840     Be     0.9577   0.7008   0.4577
Na841     Na     0.9963   0.6835   0.4963
O842     O     0.9661   0.7126   0.4022
Er843     Er     0.9837   0.7663   0.3928
O844     O     0.0374   0.7839   0.4022
Be845     Be     0.0492   0.7923   0.4577
Na846     Na     0.0665   0.7537   0.4963
Er847     Er     0.7663   0.8572   0.2663
O848     O     0.7126   0.8478   0.2839
O849     O     0.7839   0.8478   0.2126
Na850     Na     0.7537   0.7537   0.1835
Be851     Be     0.7923   0.7923   0.2008
O852     O     0.8478   0.7839   0.2126
Er853     Er     0.8572   0.7663   0.2663
O854     O     0.8478   0.7126   0.2839
Be855     Be     0.7923   0.7008   0.2923
Na856     Na     0.7537   0.6835   0.2537
O857     O     0.7839   0.7126   0.3478
Er858     Er     0.7663   0.7663   0.3572
O859     O     0.7126   0.7839   0.3478
Be860     Be     0.7008   0.7923   0.2923
Na861     Na     0.6835   0.7537   0.2537
O862     O     0.0374   0.9661   0.3478
O863     O     0.9661   0.0374   0.3478
Er864     Er     0.9837   0.9837   0.3572
Na865     Na     0.9963   0.0665   0.2537
Be866     Be     0.9577   0.0492   0.2923
O867     O     0.9022   0.9661   0.2126
Er868     Er     0.8928   0.9837   0.2663
O869     O     0.9022   0.0374   0.2839
Be870     Be     0.9577   0.9577   0.2008
Na871     Na     0.9963   0.9963   0.1835
O872     O     0.9661   0.9022   0.2126
Er873     Er     0.9837   0.8928   0.2663
O874     O     0.0374   0.9022   0.2839
Be875     Be     0.0492   0.9577   0.2923
Na876     Na     0.0665   0.9963   0.2537
F877     F     0.875   0.9452   0.4452
F878     F     0.9452   0.875   0.4452
Ti879     Ti     0.9218   0.9218   0.4218
F880     F     0.9452   0.9452   0.375
Ce881     Ce     0.9209   0.8291   0.4209
Ti882     Ti     0.8282   0.8282   0.4218
F883     F     0.8048   0.875   0.4452
F884     F     0.875   0.8048   0.4452
F885     F     0.8048   0.8048   0.375
Ce886     Ce     0.8291   0.9209   0.4209
F887     F     0.8048   0.9452   0.375
Ti888     Ti     0.8282   0.9218   0.3282
F889     F     0.875   0.9452   0.3048
F890     F     0.8048   0.875   0.3048
Ti891     Ti     0.9218   0.8282   0.3282
F892     F     0.9452   0.875   0.3048
F893     F     0.9452   0.8048   0.375
F894     F     0.875   0.8048   0.3048
Ce895     Ce     0.9209   0.9209   0.3291
Ce896     Ce     0.8291   0.8291   0.3291
H897     H     0.0192   0.0192   0.2308
H898     H     0.7308   0.0192   0.5192
H899     H     0.0192   0.7308   0.5192
H900     H     0.7308   0.7308   0.2308
V901     V     0.4156   0.1209   0.0439
V902     V     0.3791   0.0844   0.9561
N903     N     0.3787   0.1213   0.0
V904     V     0.0439   0.8344   0.1291
V905     V     0.9561   0.8709   0.1656
N906     N     0.0   0.8713   0.1287
V907     V     0.0439   0.4156   0.1209
V908     V     0.9561   0.3791   0.0844
N909     N     0.0   0.3787   0.1213
V910     V     0.1209   0.0439   0.4156
V911     V     0.0844   0.9561   0.3791
N912     N     0.1213   0.0   0.3787
V913     V     0.1291   0.7061   0.9156
V914     V     0.1656   0.7939   0.8791
N915     N     0.1287   0.75   0.8787
V916     V     0.2061   0.9156   0.6291
V917     V     0.2939   0.8791   0.6656
N918     N     0.25   0.8787   0.6287
V919     V     0.1291   0.9156   0.7061
V920     V     0.1656   0.8791   0.7939
N921     N     0.1287   0.8787   0.75
V922     V     0.1291   0.8344   0.0439
V923     V     0.1656   0.8709   0.9561
N924     N     0.1287   0.8713   0.0
V925     V     0.4156   0.6291   0.7061
V926     V     0.3791   0.6656   0.7939
N927     N     0.3787   0.6287   0.75
V928     V     0.6209   0.9156   0.0439
V929     V     0.5844   0.8791   0.9561
N930     N     0.6213   0.8787   0.0
V931     V     0.6209   0.0439   0.9156
V932     V     0.5844   0.9561   0.8791
N933     N     0.6213   0.0   0.8787
V934     V     0.6209   0.7061   0.8344
V935     V     0.5844   0.7939   0.8709
N936     N     0.6213   0.75   0.8713
Na937     Na     0.4963   0.7537   0.0665
Be938     Be     0.4577   0.7923   0.0492
O939     O     0.4022   0.7126   0.9661
Er940     Er     0.3928   0.7663   0.9837
O941     O     0.4022   0.7839   0.0374
Be942     Be     0.4577   0.7008   0.9577
Na943     Na     0.4963   0.6835   0.9963
O944     O     0.5374   0.8478   0.9661
O945     O     0.4661   0.8478   0.0374
Er946     Er     0.4837   0.8572   0.9837
Er947     Er     0.4837   0.7663   0.8928
O948     O     0.4661   0.7126   0.9022
O949     O     0.5374   0.7839   0.9022
Be950     Be     0.5492   0.7923   0.9577
Na951     Na     0.5665   0.7537   0.9963
Be952     Be     0.4577   0.9577   0.7008
Na953     Na     0.4963   0.9963   0.6835
O954     O     0.4022   0.9661   0.7126
Er955     Er     0.3928   0.9837   0.7663
O956     O     0.4022   0.0374   0.7839
Na957     Na     0.4963   0.0665   0.7537
Be958     Be     0.4577   0.0492   0.7923
O959     O     0.4661   0.9022   0.7126
O960     O     0.5374   0.9022   0.7839
Er961     Er     0.4837   0.8928   0.7663
O962     O     0.5374   0.9661   0.8478
O963     O     0.4661   0.0374   0.8478
Er964     Er     0.4837   0.9837   0.8572
Be965     Be     0.5492   0.9577   0.7923
Na966     Na     0.5665   0.9963   0.7537
O967     O     0.2126   0.8478   0.7839
O968     O     0.2839   0.8478   0.7126
Er969     Er     0.2663   0.8572   0.7663
Na970     Na     0.2537   0.7537   0.6835
Be971     Be     0.2923   0.7923   0.7008
O972     O     0.3478   0.7839   0.7126
Er973     Er     0.3572   0.7663   0.7663
O974     O     0.3478   0.7126   0.7839
Be975     Be     0.2923   0.7008   0.7923
Na976     Na     0.2537   0.6835   0.7537
Er977     Er     0.2663   0.7663   0.8572
O978     O     0.2126   0.7839   0.8478
O979     O     0.2839   0.7126   0.8478
Na980     Na     0.1835   0.7537   0.7537
Be981     Be     0.2008   0.7923   0.7923
O982     O     0.2126   0.9022   0.9661
Er983     Er     0.2663   0.8928   0.9837
O984     O     0.2839   0.9022   0.0374
Be985     Be     0.2008   0.9577   0.9577
Na986     Na     0.1835   0.9963   0.9963
O987     O     0.2126   0.9661   0.9022
Er988     Er     0.2663   0.9837   0.8928
O989     O     0.2839   0.0374   0.9022
Be990     Be     0.2923   0.0492   0.9577
Na991     Na     0.2537   0.0665   0.9963
O992     O     0.3478   0.9661   0.0374
O993     O     0.3478   0.0374   0.9661
Er994     Er     0.3572   0.9837   0.9837
Be995     Be     0.2923   0.9577   0.0492
Na996     Na     0.2537   0.9963   0.0665
F997     F     0.4452   0.875   0.9452
F998     F     0.4452   0.9452   0.875
F999     F     0.375   0.9452   0.9452
Ti1000     Ti     0.4218   0.9218   0.9218
Ce1001     Ce     0.4209   0.8291   0.9209
Ti1002     Ti     0.4218   0.8282   0.8282
F1003     F     0.4452   0.875   0.8048
F1004     F     0.4452   0.8048   0.875
F1005     F     0.375   0.8048   0.8048
Ce1006     Ce     0.4209   0.9209   0.8291
Ti1007     Ti     0.3282   0.8282   0.9218
F1008     F     0.3048   0.875   0.9452
F1009     F     0.375   0.8048   0.9452
F1010     F     0.3048   0.8048   0.875
Ti1011     Ti     0.3282   0.9218   0.8282
F1012     F     0.3048   0.9452   0.875
F1013     F     0.375   0.9452   0.8048
F1014     F     0.3048   0.875   0.8048
Ce1015     Ce     0.3291   0.9209   0.9209
Ce1016     Ce     0.3291   0.8291   0.8291
H1017     H     0.5192   0.0192   0.7308
H1018     H     0.5192   0.7308   0.0192
H1019     H     0.2308   0.0192   0.0192
H1020     H     0.2308   0.7308   0.7308
V1021     V     0.1209   0.4156   0.0439
V1022     V     0.0844   0.3791   0.9561
N1023     N     0.1213   0.3787   0.0
V1024     V     0.4156   0.0439   0.1209
V1025     V     0.3791   0.9561   0.0844
N1026     N     0.3787   0.0   0.1213
V1027     V     0.9156   0.1291   0.7061
V1028     V     0.8791   0.1656   0.7939
N1029     N     0.8787   0.1287   0.75
V1030     V     0.6656   0.3791   0.7939
V1031     V     0.6291   0.4156   0.7061
N1032     N     0.6287   0.3787   0.75
V1033     V     0.7939   0.6656   0.3791
V1034     V     0.7061   0.6291   0.4156
N1035     N     0.75   0.6287   0.3787
V1036     V     0.6656   0.4561   0.8709
V1037     V     0.6291   0.5439   0.8344
N1038     N     0.6287   0.5   0.8713
O1039     O     0.5339   0.4626   0.6522
O1040     O     0.4626   0.5339   0.6522
Er1041     Er     0.5163   0.5163   0.6428
Be1042     Be     0.4508   0.5423   0.7077
Na1043     Na     0.4335   0.5037   0.7463
Be1044     Be     0.5423   0.4508   0.7077
Na1045     Na     0.5037   0.4335   0.7463
O1046     O     0.5339   0.5978   0.7874
Er1047     Er     0.5163   0.6072   0.7337
O1048     O     0.4626   0.5978   0.7161
O1049     O     0.5978   0.4626   0.7161
O1050     O     0.5978   0.5339   0.7874
Er1051     Er     0.6072   0.5163   0.7337
Be1052     Be     0.5423   0.5423   0.7992
Na1053     Na     0.5037   0.5037   0.8165
Er1054     Er     0.5163   0.6428   0.5163
O1055     O     0.5339   0.6522   0.4626
O1056     O     0.4626   0.6522   0.5339
Be1057     Be     0.4508   0.7077   0.5423
Na1058     Na     0.4335   0.7463   0.5037
Be1059     Be     0.5423   0.7077   0.4508
Na1060     Na     0.5037   0.7463   0.4335
O1061     O     0.4626   0.7161   0.5978
O1062     O     0.5339   0.7874   0.5978
Er1063     Er     0.5163   0.7337   0.6072
Er1064     Er     0.6072   0.7337   0.5163
O1065     O     0.5978   0.7874   0.5339
O1066     O     0.5978   0.7161   0.4626
Na1067     Na     0.5037   0.8165   0.5037
Be1068     Be     0.5423   0.7992   0.5423
O1069     O     0.6522   0.5339   0.4626
O1070     O     0.6522   0.4626   0.5339
Er1071     Er     0.6428   0.5163   0.5163
Be1072     Be     0.7077   0.5423   0.4508
Na1073     Na     0.7463   0.5037   0.4335
Be1074     Be     0.7077   0.4508   0.5423
Na1075     Na     0.7463   0.4335   0.5037
Er1076     Er     0.7337   0.5163   0.6072
O1077     O     0.7874   0.5339   0.5978
O1078     O     0.7161   0.4626   0.5978
O1079     O     0.7161   0.5978   0.4626
Er1080     Er     0.7337   0.6072   0.5163
O1081     O     0.7874   0.5978   0.5339
Na1082     Na     0.8165   0.5037   0.5037
Be1083     Be     0.7992   0.5423   0.5423
O1084     O     0.7161   0.6522   0.7874
Er1085     Er     0.7337   0.6428   0.7337
O1086     O     0.7874   0.6522   0.7161
Be1087     Be     0.7992   0.7077   0.7077
Na1088     Na     0.8165   0.7463   0.7463
Er1089     Er     0.7337   0.7337   0.6428
O1090     O     0.7874   0.7161   0.6522
O1091     O     0.7161   0.7874   0.6522
Be1092     Be     0.7077   0.7992   0.7077
Na1093     Na     0.7463   0.8165   0.7463
O1094     O     0.6522   0.7874   0.7161
Er1095     Er     0.6428   0.7337   0.7337
O1096     O     0.6522   0.7161   0.7874
Be1097     Be     0.7077   0.7077   0.7992
Na1098     Na     0.7463   0.7463   0.8165
Ti1099     Ti     0.5782   0.5782   0.5782
F1100     F     0.625   0.5548   0.5548
F1101     F     0.5548   0.5548   0.625
F1102     F     0.5548   0.625   0.5548
F1103     F     0.5548   0.625   0.6952
Ti1104     Ti     0.5782   0.6718   0.6718
F1105     F     0.5548   0.6952   0.625
F1106     F     0.625   0.6952   0.6952
F1107     F     0.625   0.6952   0.5548
F1108     F     0.6952   0.625   0.5548
Ti1109     Ti     0.6718   0.6718   0.5782
F1110     F     0.6952   0.6952   0.625
F1111     F     0.6952   0.5548   0.625
Ti1112     Ti     0.6718   0.5782   0.6718
F1113     F     0.625   0.5548   0.6952
F1114     F     0.6952   0.625   0.6952
Ce1115     Ce     0.6709   0.6709   0.6709
Ce1116     Ce     0.6709   0.5791   0.5791
Ce1117     Ce     0.5791   0.6709   0.5791
Ce1118     Ce     0.5791   0.5791   0.6709
H1119     H     0.4808   0.7692   0.4808
H1120     H     0.7692   0.7692   0.7692
H1121     H     0.7692   0.4808   0.4808
H1122     H     0.4808   0.4808   0.7692
V1123     V     0.7061   0.1291   0.9156
V1124     V     0.7939   0.1656   0.8791
N1125     N     0.75   0.1287   0.8787
V1126     V     0.8709   0.4561   0.6656
V1127     V     0.8344   0.5439   0.6291
N1128     N     0.8713   0.5   0.6287
V1129     V     0.0439   0.1291   0.8344
V1130     V     0.9561   0.1656   0.8709
N1131     N     0.0   0.1287   0.8713
V1132     V     0.6291   0.2061   0.9156
V1133     V     0.6656   0.2939   0.8791
N1134     N     0.6287   0.25   0.8787
V1135     V     0.7061   0.4156   0.6291
V1136     V     0.7939   0.3791   0.6656
N1137     N     0.75   0.3787   0.6287
V1138     V     0.9156   0.6209   0.0439
V1139     V     0.8791   0.5844   0.9561
N1140     N     0.8787   0.6213   0.0
V1141     V     0.0439   0.6209   0.9156
V1142     V     0.9561   0.5844   0.8791
N1143     N     0.0   0.6213   0.8787
V1144     V     0.7061   0.6209   0.8344
V1145     V     0.7939   0.5844   0.8709
N1146     N     0.75   0.6213   0.8713
V1147     V     0.8344   0.6209   0.7061
V1148     V     0.8709   0.5844   0.7939
N1149     N     0.8713   0.6213   0.75
Be1150     Be     0.9577   0.4577   0.7008
Na1151     Na     0.9963   0.4963   0.6835
O1152     O     0.9661   0.4022   0.7126
O1153     O     0.0374   0.4022   0.7839
Er1154     Er     0.9837   0.3928   0.7663
Be1155     Be     0.0492   0.4577   0.7923
Na1156     Na     0.0665   0.4963   0.7537
O1157     O     0.9661   0.5374   0.8478
O1158     O     0.0374   0.4661   0.8478
Er1159     Er     0.9837   0.4837   0.8572
O1160     O     0.9022   0.4661   0.7126
Er1161     Er     0.8928   0.4837   0.7663
O1162     O     0.9022   0.5374   0.7839
Na1163     Na     0.9963   0.5665   0.7537
Be1164     Be     0.9577   0.5492   0.7923
Be1165     Be     0.7923   0.5492   0.9577
Na1166     Na     0.7537   0.5665   0.9963
O1167     O     0.7839   0.5374   0.9022
O1168     O     0.7126   0.4661   0.9022
Er1169     Er     0.7663   0.4837   0.8928
O1170     O     0.8478   0.5374   0.9661
O1171     O     0.8478   0.4661   0.0374
Er1172     Er     0.8572   0.4837   0.9837
Be1173     Be     0.7008   0.4577   0.9577
Na1174     Na     0.6835   0.4963   0.9963
Er1175     Er     0.7663   0.3928   0.9837
O1176     O     0.7839   0.4022   0.0374
O1177     O     0.7126   0.4022   0.9661
Na1178     Na     0.7537   0.4963   0.0665
Be1179     Be     0.7923   0.4577   0.0492
Er1180     Er     0.8572   0.2663   0.7663
O1181     O     0.8478   0.2839   0.7126
O1182     O     0.8478   0.2126   0.7839
Na1183     Na     0.7537   0.1835   0.7537
Be1184     Be     0.7923   0.2008   0.7923
O1185     O     0.7839   0.2126   0.8478
Er1186     Er     0.7663   0.2663   0.8572
O1187     O     0.7126   0.2839   0.8478
Be1188     Be     0.7008   0.2923   0.7923
Na1189     Na     0.6835   0.2537   0.7537
O1190     O     0.7126   0.3478   0.7839
Er1191     Er     0.7663   0.3572   0.7663
O1192     O     0.7839   0.3478   0.7126
Be1193     Be     0.7923   0.2923   0.7008
Na1194     Na     0.7537   0.2537   0.6835
O1195     O     0.0374   0.3478   0.9661
O1196     O     0.9661   0.3478   0.0374
Er1197     Er     0.9837   0.3572   0.9837
Be1198     Be     0.0492   0.2923   0.9577
Na1199     Na     0.0665   0.2537   0.9963
O1200     O     0.9661   0.2126   0.9022
O1201     O     0.0374   0.2839   0.9022
Er1202     Er     0.9837   0.2663   0.8928
Be1203     Be     0.9577   0.2923   0.0492
Na1204     Na     0.9963   0.2537   0.0665
O1205     O     0.9022   0.2839   0.0374
O1206     O     0.9022   0.2126   0.9661
Er1207     Er     0.8928   0.2663   0.9837
Na1208     Na     0.9963   0.1835   0.9963
Be1209     Be     0.9577   0.2008   0.9577
Ti1210     Ti     0.8282   0.4218   0.8282
F1211     F     0.8048   0.4452   0.875
F1212     F     0.875   0.4452   0.8048
F1213     F     0.8048   0.375   0.8048
Ce1214     Ce     0.8291   0.4209   0.9209
Ti1215     Ti     0.9218   0.3282   0.8282
F1216     F     0.9452   0.375   0.8048
F1217     F     0.875   0.3048   0.8048
F1218     F     0.9452   0.3048   0.875
Ce1219     Ce     0.9209   0.4209   0.8291
Ti1220     Ti     0.9218   0.4218   0.9218
F1221     F     0.9452   0.4452   0.875
F1222     F     0.875   0.4452   0.9452
F1223     F     0.9452   0.375   0.9452
Ce1224     Ce     0.9209   0.3291   0.9209
Ti1225     Ti     0.8282   0.3282   0.9218
F1226     F     0.875   0.3048   0.9452
F1227     F     0.8048   0.375   0.9452
F1228     F     0.8048   0.3048   0.875
Ce1229     Ce     0.8291   0.3291   0.8291
H1230     H     0.7308   0.2308   0.7308
H1231     H     0.0192   0.2308   0.0192
H1232     H     0.0192   0.5192   0.7308
H1233     H     0.7308   0.5192   0.0192
V1234     V     0.0439   0.1209   0.4156
V1235     V     0.9561   0.0844   0.3791
N1236     N     0.0   0.1213   0.3787
V1237     V     0.0844   0.8709   0.2939
V1238     V     0.1209   0.8344   0.2061
N1239     N     0.1213   0.8713   0.25
V1240     V     0.1291   0.4156   0.2061
V1241     V     0.1656   0.3791   0.2939
N1242     N     0.1287   0.3787   0.25
Er1243     Er     0.0163   0.5163   0.1428
O1244     O     0.9626   0.5339   0.1522
O1245     O     0.0339   0.4626   0.1522
O1246     O     0.0978   0.4626   0.2161
O1247     O     0.0978   0.5339   0.2874
Er1248     Er     0.1072   0.5163   0.2337
Be1249     Be     0.0423   0.4508   0.2077
Na1250     Na     0.0037   0.4335   0.2463
Be1251     Be     0.9508   0.5423   0.2077
Na1252     Na     0.9335   0.5037   0.2463
Er1253     Er     0.0163   0.6072   0.2337
O1254     O     0.0339   0.5978   0.2874
O1255     O     0.9626   0.5978   0.2161
Na1256     Na     0.0037   0.5037   0.3165
Be1257     Be     0.0423   0.5423   0.2992
Er1258     Er     0.0163   0.6428   0.0163
O1259     O     0.0339   0.6522   0.9626
O1260     O     0.9626   0.6522   0.0339
Be1261     Be     0.0423   0.7077   0.9508
Na1262     Na     0.0037   0.7463   0.9335
Er1263     Er     0.1072   0.7337   0.0163
O1264     O     0.0978   0.7874   0.0339
O1265     O     0.0978   0.7161   0.9626
Be1266     Be     0.0423   0.7992   0.0423
Na1267     Na     0.0037   0.8165   0.0037
Er1268     Er     0.0163   0.7337   0.1072
O1269     O     0.9626   0.7161   0.0978
O1270     O     0.0339   0.7874   0.0978
Be1271     Be     0.9508   0.7077   0.0423
Na1272     Na     0.9335   0.7463   0.0037
Be1273     Be     0.2077   0.5423   0.9508
Na1274     Na     0.2463   0.5037   0.9335
Er1275     Er     0.2337   0.5163   0.1072
O1276     O     0.2874   0.5339   0.0978
O1277     O     0.2161   0.4626   0.0978
Er1278     Er     0.2337   0.6072   0.0163
O1279     O     0.2874   0.5978   0.0339
O1280     O     0.2161   0.5978   0.9626
Be1281     Be     0.2992   0.5423   0.0423
Na1282     Na     0.3165   0.5037   0.0037
Er1283     Er     0.1428   0.5163   0.0163
O1284     O     0.1522   0.5339   0.9626
O1285     O     0.1522   0.4626   0.0339
Be1286     Be     0.2077   0.4508   0.0423
Na1287     Na     0.2463   0.4335   0.0037
Er1288     Er     0.2337   0.6428   0.2337
O1289     O     0.2874   0.6522   0.2161
O1290     O     0.2161   0.6522   0.2874
Be1291     Be     0.2077   0.7077   0.2992
Na1292     Na     0.2463   0.7463   0.3165
Be1293     Be     0.2992   0.7077   0.2077
Na1294     Na     0.3165   0.7463   0.2463
Er1295     Er     0.2337   0.7337   0.1428
O1296     O     0.2874   0.7161   0.1522
O1297     O     0.2161   0.7874   0.1522
Er1298     Er     0.1428   0.7337   0.2337
O1299     O     0.1522   0.7161   0.2874
O1300     O     0.1522   0.7874   0.2161
Na1301     Na     0.2463   0.8165   0.2463
Be1302     Be     0.2077   0.7992   0.2077
Ti1303     Ti     0.1718   0.5782   0.1718
F1304     F     0.1952   0.5548   0.125
F1305     F     0.125   0.5548   0.1952
F1306     F     0.1952   0.625   0.1952
Ti1307     Ti     0.0782   0.5782   0.0782
F1308     F     0.0548   0.5548   0.125
F1309     F     0.125   0.5548   0.0548
F1310     F     0.0548   0.625   0.0548
F1311     F     0.1952   0.625   0.0548
Ti1312     Ti     0.1718   0.6718   0.0782
F1313     F     0.1952   0.6952   0.125
F1314     F     0.125   0.6952   0.0548
Ce1315     Ce     0.1709   0.6709   0.1709
Ti1316     Ti     0.0782   0.6718   0.1718
F1317     F     0.0548   0.625   0.1952
F1318     F     0.125   0.6952   0.1952
F1319     F     0.0548   0.6952   0.125
Ce1320     Ce     0.0791   0.5791   0.1709
Ce1321     Ce     0.1709   0.5791   0.0791
Ce1322     Ce     0.0791   0.6709   0.0791
H1323     H     0.9808   0.7692   0.9808
H1324     H     0.2692   0.7692   0.2692
H1325     H     0.9808   0.4808   0.2692
H1326     H     0.2692   0.4808   0.9808
V1327     V     0.8344   0.1209   0.2061
V1328     V     0.8709   0.0844   0.2939
N1329     N     0.8713   0.1213   0.25
V1330     V     0.8344   0.2061   0.1209
V1331     V     0.8709   0.2939   0.0844
N1332     N     0.8713   0.25   0.1213
V1333     V     0.2061   0.1209   0.8344
V1334     V     0.2939   0.0844   0.8709
N1335     N     0.25   0.1213   0.8713
Na1336     Na     0.4335   0.0037   0.2463
Be1337     Be     0.4508   0.0423   0.2077
Er1338     Er     0.5163   0.0163   0.1428
O1339     O     0.5339   0.9626   0.1522
O1340     O     0.4626   0.0339   0.1522
O1341     O     0.5339   0.0978   0.2874
Er1342     Er     0.5163   0.1072   0.2337
O1343     O     0.4626   0.0978   0.2161
Be1344     Be     0.5423   0.9508   0.2077
Na1345     Na     0.5037   0.9335   0.2463
Er1346     Er     0.6072   0.0163   0.2337
O1347     O     0.5978   0.0339   0.2874
O1348     O     0.5978   0.9626   0.2161
Na1349     Na     0.5037   0.0037   0.3165
Be1350     Be     0.5423   0.0423   0.2992
Be1351     Be     0.5423   0.2077   0.9508
Na1352     Na     0.5037   0.2463   0.9335
Er1353     Er     0.6072   0.2337   0.0163
O1354     O     0.5978   0.2874   0.0339
O1355     O     0.5978   0.2161   0.9626
Be1356     Be     0.5423   0.2992   0.0423
Na1357     Na     0.5037   0.3165   0.0037
Er1358     Er     0.5163   0.1428   0.0163
O1359     O     0.5339   0.1522   0.9626
O1360     O     0.4626   0.1522   0.0339
O1361     O     0.5339   0.2874   0.0978
Er1362     Er     0.5163   0.2337   0.1072
O1363     O     0.4626   0.2161   0.0978
Be1364     Be     0.4508   0.2077   0.0423
Na1365     Na     0.4335   0.2463   0.0037
O1366     O     0.6522   0.2874   0.2161
Er1367     Er     0.6428   0.2337   0.2337
O1368     O     0.6522   0.2161   0.2874
Be1369     Be     0.7077   0.2077   0.2992
Na1370     Na     0.7463   0.2463   0.3165
Be1371     Be     0.7077   0.2992   0.2077
Na1372     Na     0.7463   0.3165   0.2463
O1373     O     0.7161   0.1522   0.2874
Er1374     Er     0.7337   0.1428   0.2337
O1375     O     0.7874   0.1522   0.2161
Er1376     Er     0.7337   0.2337   0.1428
O1377     O     0.7161   0.2874   0.1522
O1378     O     0.7874   0.2161   0.1522
Na1379     Na     0.8165   0.2463   0.2463
Be1380     Be     0.7992   0.2077   0.2077
Er1381     Er     0.6428   0.0163   0.0163
O1382     O     0.6522   0.9626   0.0339
O1383     O     0.6522   0.0339   0.9626
Be1384     Be     0.7077   0.9508   0.0423
Na1385     Na     0.7463   0.9335   0.0037
Be1386     Be     0.7077   0.0423   0.9508
Na1387     Na     0.7463   0.0037   0.9335
Er1388     Er     0.7337   0.1072   0.0163
O1389     O     0.7161   0.0978   0.9626
O1390     O     0.7874   0.0978   0.0339
Er1391     Er     0.7337   0.0163   0.1072
O1392     O     0.7874   0.0339   0.0978
O1393     O     0.7161   0.9626   0.0978
Be1394     Be     0.7992   0.0423   0.0423
Na1395     Na     0.8165   0.0037   0.0037
Ti1396     Ti     0.5782   0.1718   0.1718
F1397     F     0.5548   0.125   0.1952
F1398     F     0.5548   0.1952   0.125
F1399     F     0.625   0.1952   0.1952
F1400     F     0.5548   0.125   0.0548
Ti1401     Ti     0.5782   0.0782   0.0782
F1402     F     0.5548   0.0548   0.125
F1403     F     0.625   0.0548   0.0548
Ce1404     Ce     0.6709   0.0791   0.0791
Ce1405     Ce     0.5791   0.1709   0.0791
Ti1406     Ti     0.6718   0.1718   0.0782
F1407     F     0.625   0.1952   0.0548
F1408     F     0.6952   0.1952   0.125
F1409     F     0.6952   0.125   0.0548
Ce1410     Ce     0.6709   0.1709   0.1709
Ti1411     Ti     0.6718   0.0782   0.1718
F1412     F     0.625   0.0548   0.1952
F1413     F     0.6952   0.0548   0.125
F1414     F     0.6952   0.125   0.1952
Ce1415     Ce     0.5791   0.0791   0.1709
H1416     H     0.7692   0.9808   0.9808
H1417     H     0.4808   0.2692   0.9808
H1418     H     0.7692   0.2692   0.2692
H1419     H     0.4808   0.9808   0.2692
V1420     V     0.3791   0.2939   0.1656
V1421     V     0.4156   0.2061   0.1291
N1422     N     0.3787   0.25   0.1287
V1423     V     0.1656   0.2939   0.3791
V1424     V     0.1291   0.2061   0.4156
N1425     N     0.1287   0.25   0.3787
V1426     V     0.1209   0.2061   0.8344
V1427     V     0.0844   0.2939   0.8709
N1428     N     0.1213   0.25   0.8713
V1429     V     0.2061   0.1291   0.4156
V1430     V     0.2939   0.1656   0.3791
N1431     N     0.25   0.1287   0.3787
V1432     V     0.1291   0.0439   0.8344
V1433     V     0.1656   0.9561   0.8709
N1434     N     0.1287   0.0   0.8713
Na1435     Na     0.0037   0.2463   0.4335
Be1436     Be     0.0423   0.2077   0.4508
Er1437     Er     0.0163   0.1428   0.5163
O1438     O     0.0339   0.1522   0.4626
O1439     O     0.9626   0.1522   0.5339
O1440     O     0.0978   0.2874   0.5339
Er1441     Er     0.1072   0.2337   0.5163
O1442     O     0.0978   0.2161   0.4626
Be1443     Be     0.9508   0.2077   0.5423
Na1444     Na     0.9335   0.2463   0.5037
Er1445     Er     0.0163   0.2337   0.6072
O1446     O     0.0339   0.2874   0.5978
O1447     O     0.9626   0.2161   0.5978
Be1448     Be     0.0423   0.2992   0.5423
Na1449     Na     0.0037   0.3165   0.5037
O1450     O     0.2161   0.0978   0.4626
Er1451     Er     0.2337   0.1072   0.5163
O1452     O     0.2874   0.0978   0.5339
Na1453     Na     0.2463   0.0037   0.4335
Be1454     Be     0.2077   0.0423   0.4508
Er1455     Er     0.1428   0.0163   0.5163
O1456     O     0.1522   0.9626   0.5339
O1457     O     0.1522   0.0339   0.4626
Be1458     Be     0.2077   0.9508   0.5423
Na1459     Na     0.2463   0.9335   0.5037
Er1460     Er     0.2337   0.0163   0.6072
O1461     O     0.2161   0.9626   0.5978
O1462     O     0.2874   0.0339   0.5978
Be1463     Be     0.2992   0.0423   0.5423
Na1464     Na     0.3165   0.0037   0.5037
O1465     O     0.2161   0.2874   0.6522
O1466     O     0.2874   0.2161   0.6522
Er1467     Er     0.2337   0.2337   0.6428
Be1468     Be     0.2992   0.2077   0.7077
Na1469     Na     0.3165   0.2463   0.7463
Be1470     Be     0.2077   0.2992   0.7077
Na1471     Na     0.2463   0.3165   0.7463
Er1472     Er     0.1428   0.2337   0.7337
O1473     O     0.1522   0.2874   0.7161
O1474     O     0.1522   0.2161   0.7874
Er1475     Er     0.2337   0.1428   0.7337
O1476     O     0.2874   0.1522   0.7161
O1477     O     0.2161   0.1522   0.7874
Na1478     Na     0.2463   0.2463   0.8165
Be1479     Be     0.2077   0.2077   0.7992
Er1480     Er     0.0163   0.0163   0.6428
O1481     O     0.9626   0.0339   0.6522
O1482     O     0.0339   0.9626   0.6522
Be1483     Be     0.9508   0.0423   0.7077
Na1484     Na     0.9335   0.0037   0.7463
Be1485     Be     0.0423   0.9508   0.7077
Na1486     Na     0.0037   0.9335   0.7463
Er1487     Er     0.1072   0.0163   0.7337
O1488     O     0.0978   0.9626   0.7161
O1489     O     0.0978   0.0339   0.7874
Er1490     Er     0.0163   0.1072   0.7337
O1491     O     0.0339   0.0978   0.7874
O1492     O     0.9626   0.0978   0.7161
Be1493     Be     0.0423   0.0423   0.7992
Na1494     Na     0.0037   0.0037   0.8165
Ce1495     Ce     0.0791   0.0791   0.6709
F1496     F     0.1952   0.125   0.5548
Ti1497     Ti     0.1718   0.1718   0.5782
F1498     F     0.125   0.1952   0.5548
F1499     F     0.1952   0.1952   0.625
F1500     F     0.125   0.1952   0.6952
Ti1501     Ti     0.0782   0.1718   0.6718
F1502     F     0.0548   0.125   0.6952
F1503     F     0.0548   0.1952   0.625
Ti1504     Ti     0.1718   0.0782   0.6718
F1505     F     0.1952   0.0548   0.625
F1506     F     0.1952   0.125   0.6952
F1507     F     0.125   0.0548   0.6952
Ce1508     Ce     0.1709   0.1709   0.6709
Ti1509     Ti     0.0782   0.0782   0.5782
F1510     F     0.0548   0.125   0.5548
F1511     F     0.125   0.0548   0.5548
F1512     F     0.0548   0.0548   0.625
Ce1513     Ce     0.1709   0.0791   0.5791
Ce1514     Ce     0.0791   0.1709   0.5791
H1515     H     0.9808   0.9808   0.7692
H1516     H     0.2692   0.2692   0.7692
H1517     H     0.9808   0.2692   0.4808
H1518     H     0.2692   0.9808   0.4808
V1519     V     0.3709   0.5844   0.2939
V1520     V     0.3344   0.6209   0.2061
N1521     N     0.3713   0.6213   0.25
V1522     V     0.2939   0.3709   0.5844
V1523     V     0.2061   0.3344   0.6209
N1524     N     0.25   0.3713   0.6213
V1525     V     0.5844   0.2939   0.3709
V1526     V     0.6209   0.2061   0.3344
N1527     N     0.6213   0.25   0.3713
V1528     V     0.2061   0.6209   0.3344
V1529     V     0.2939   0.5844   0.3709
N1530     N     0.25   0.6213   0.3713
V1531     V     0.4561   0.3791   0.5844
V1532     V     0.5439   0.4156   0.6209
N1533     N     0.5   0.3787   0.6213
V1534     V     0.3791   0.4561   0.5844
V1535     V     0.4156   0.5439   0.6209
N1536     N     0.3787   0.5   0.6213
V1537     V     0.4156   0.6209   0.5439
V1538     V     0.3791   0.5844   0.4561
N1539     N     0.3787   0.6213   0.5
V1540     V     0.4561   0.5844   0.3791
V1541     V     0.5439   0.6209   0.4156
N1542     N     0.5   0.6213   0.3787
V1543     V     0.5844   0.4561   0.3791
V1544     V     0.6209   0.5439   0.4156
N1545     N     0.6213   0.5   0.3787
V1546     V     0.5844   0.3791   0.4561
V1547     V     0.6209   0.4156   0.5439
N1548     N     0.6213   0.3787   0.5
Er1549     Er     0.4837   0.4837   0.3572
O1550     O     0.4661   0.5374   0.3478
O1551     O     0.5374   0.4661   0.3478
Na1552     Na     0.4963   0.5665   0.2537
Be1553     Be     0.4577   0.5492   0.2923
O1554     O     0.4022   0.4661   0.2126
O1555     O     0.4022   0.5374   0.2839
Er1556     Er     0.3928   0.4837   0.2663
Na1557     Na     0.4963   0.4963   0.1835
Be1558     Be     0.4577   0.4577   0.2008
Er1559     Er     0.4837   0.3928   0.2663
O1560     O     0.4661   0.4022   0.2126
O1561     O     0.5374   0.4022   0.2839
Na1562     Na     0.5665   0.4963   0.2537
Be1563     Be     0.5492   0.4577   0.2923
Er1564     Er     0.3572   0.4837   0.4837
O1565     O     0.3478   0.5374   0.4661
O1566     O     0.3478   0.4661   0.5374
Na1567     Na     0.2537   0.4963   0.5665
Be1568     Be     0.2923   0.4577   0.5492
O1569     O     0.2126   0.4022   0.4661
O1570     O     0.2839   0.4022   0.5374
Er1571     Er     0.2663   0.3928   0.4837
Na1572     Na     0.1835   0.4963   0.4963
Be1573     Be     0.2008   0.4577   0.4577
Er1574     Er     0.2663   0.4837   0.3928
O1575     O     0.2126   0.4661   0.4022
O1576     O     0.2839   0.5374   0.4022
Na1577     Na     0.2537   0.5665   0.4963
Be1578     Be     0.2923   0.5492   0.4577
Er1579     Er     0.4837   0.3572   0.4837
O1580     O     0.5374   0.3478   0.4661
O1581     O     0.4661   0.3478   0.5374
O1582     O     0.4661   0.2126   0.4022
Er1583     Er     0.4837   0.2663   0.3928
O1584     O     0.5374   0.2839   0.4022
Na1585     Na     0.5665   0.2537   0.4963
Be1586     Be     0.5492   0.2923   0.4577
Na1587     Na     0.4963   0.2537   0.5665
Be1588     Be     0.4577   0.2923   0.5492
Er1589     Er     0.3928   0.2663   0.4837
O1590     O     0.4022   0.2126   0.4661
O1591     O     0.4022   0.2839   0.5374
Na1592     Na     0.4963   0.1835   0.4963
Be1593     Be     0.4577   0.2008   0.4577
Na1594     Na     0.2537   0.2537   0.1835
Be1595     Be     0.2923   0.2923   0.2008
O1596     O     0.2126   0.3478   0.2839
O1597     O     0.2839   0.3478   0.2126
Er1598     Er     0.2663   0.3572   0.2663
O1599     O     0.2839   0.2126   0.3478
Er1600     Er     0.2663   0.2663   0.3572
O1601     O     0.2126   0.2839   0.3478
Na1602     Na     0.1835   0.2537   0.2537
Be1603     Be     0.2008   0.2923   0.2923
O1604     O     0.3478   0.2839   0.2126
Er1605     Er     0.3572   0.2663   0.2663
O1606     O     0.3478   0.2126   0.2839
Na1607     Na     0.2537   0.1835   0.2537
Be1608     Be     0.2923   0.2008   0.2923
Ti1609     Ti     0.4218   0.4218   0.4218
F1610     F     0.4452   0.375   0.4452
F1611     F     0.375   0.4452   0.4452
F1612     F     0.4452   0.4452   0.375
F1613     F     0.3048   0.4452   0.375
Ti1614     Ti     0.3282   0.4218   0.3282
F1615     F     0.375   0.4452   0.3048
F1616     F     0.3048   0.375   0.3048
Ce1617     Ce     0.4209   0.4209   0.3291
F1618     F     0.4452   0.375   0.3048
Ti1619     Ti     0.4218   0.3282   0.3282
F1620     F     0.4452   0.3048   0.375
F1621     F     0.375   0.3048   0.3048
F1622     F     0.3048   0.375   0.4452
Ti1623     Ti     0.3282   0.3282   0.4218
F1624     F     0.375   0.3048   0.4452
F1625     F     0.3048   0.3048   0.375
Ce1626     Ce     0.4209   0.3291   0.4209
Ce1627     Ce     0.3291   0.3291   0.3291
Ce1628     Ce     0.3291   0.4209   0.4209
H1629     H     0.5192   0.2308   0.5192
H1630     H     0.2308   0.2308   0.2308
H1631     H     0.5192   0.5192   0.2308
H1632     H     0.2308   0.5192   0.5192
loop_
_geom_bond_atom_site_label_1
_geom_bond_atom_site_label_2
_geom_bond_distance
_geom_bond_site_symmetry_2
_ccdc_geom_bond_type
S1     C621    10.0   .     S
S1     C620    10.0   .     S
S1     Ne2    10.0   .     S
Ne2     Li438    10.001   .     S
Ne2     Li290    10.001   .     S
S3     C627    10.0   .     S
S3     C624    10.0   .     S
S3     Ne4    10.0   .     S
Ne4     Li462    10.001   .     S
Ne4     Li36    10.001   .     S
S5     C628    10.0   .     S
S5     C622    10.0   .     S
S5     Ne6    10.0   .     S
Ne6     Li410    10.001   .     S
Ne6     Li143    10.001   .     S
S7     C643    10.0   .     S
S7     C649    10.0   .     S
S7     Ne8    10.0   .     S
Ne8     Li194    10.001   .     S
Ne8     Li318    10.001   .     S
S9     C626    10.0   .     S
S9     C615    10.0   .     S
S9     Ne10    10.0   .     S
Ne10     Li100    10.001   .     S
Ne10     Li447    10.001   .     S
S11     C611    10.0   .     S
S11     C613    10.0   .     S
S11     Ne12    10.0   .     S
Ne12     Li335    10.001   .     S
Ne12     Li475    10.001   .     S
S13     C638    10.0   .     S
S13     C619    10.0   .     S
S13     Ne14    10.0   .     S
Ne14     Li163    10.001   .     S
Ne14     Li137    10.001   .     S
S15     C634    10.0   .     S
S15     C609    10.0   .     S
S15     Ne16    10.0   .     S
Ne16     Li198    10.001   .     S
Ne16     Li44    10.001   .     S
S17     C639    10.0   .     S
S17     C631    10.0   .     S
S17     Ne18    10.0   .     S
Ne18     Li327    10.001   .     S
Ne18     Li56    10.001   .     S
S19     C672    10.0   .     S
S19     C664    10.0   .     S
S19     Ne20    10.0   .     S
Ne20     Li384    10.001   .     S
Ne20     Li427    10.001   .     S
S21     C665    10.0   .     S
S21     C670    10.0   .     S
S21     Ne22    10.0   .     S
Ne22     Li376    10.001   .     S
Ne22     Li455    10.001   .     S
S23     C636    10.0   .     S
S23     C605    10.0   .     S
S23     Ne24    10.0   .     S
Ne24     Li256    10.001   .     S
Ne24     Li385    10.001   .     S
S25     C652    10.0   .     S
S25     C606    10.0   .     S
S25     Ne26    10.0   .     S
Ne26     Li230    10.001   .     S
Ne26     Li380    10.001   .     S
S27     C618    10.0   .     S
S27     C589    10.0   .     S
S27     Ne28    10.0   .     S
Ne28     Li68    10.001   .     S
Ne28     Li409    10.001   .     S
S29     C661    10.0   .     S
S29     C582    10.0   .     S
S29     Ne30    10.0   .     S
Ne30     Li52    10.001   .     S
Ne30     Li104    10.001   .     S
S31     C663    10.0   .     S
S31     C588    10.0   .     S
S31     Ne32    10.0   .     S
Ne32     Li43    10.001   .     S
Ne32     Li78    10.001   .     S
Mg33     B34    9.999   .     S
Mg33     He535    10.001   .     S
Mg33     Li36    10.0   .     S
B34     N729    10.0   .     S
B34     Mg35    9.999   .     S
Mg35     He563    10.001   .     S
Mg35     Li52    10.0   .     S
Li36     Mg37    10.0   .     S
Mg37     B38    9.999   .     S
Mg37     He497    10.001   .     S
B38     N759    10.0   .     S
B38     Mg39    9.999   .     S
Mg39     He563    10.001   .     S
Mg39     Li43    10.0   .     S
Mg40     B41    9.999   1_565     S
Mg40     He552    10.001   1_565     S
Mg40     Li43    10.0   .     S
B41     Mg40    9.999   1_545     S
B41     N777    10.0   .     S
B41     Mg42    9.999   .     S
Mg42     He497    10.001   1_545     S
Mg42     Li44    10.0   .     S
Li44     Mg45    10.0   .     S
Mg45     B46    9.999   .     S
Mg45     He525    10.001   .     S
B46     N747    10.0   .     S
B46     Mg47    9.999   .     S
Mg47     He552    10.001   .     S
Mg47     Li48    10.0   .     S
Li48     Mg49    10.0   .     S
Li48     Ne58    10.001   .     S
Mg49     B50    9.999   .     S
Mg49     He539    10.001   .     S
B50     N693    10.0   .     S
B50     Mg51    9.999   .     S
Mg51     He525    10.001   .     S
Mg51     Li56    10.0   .     S
Li52     Mg53    10.0   .     S
Mg53     B54    9.999   1_565     S
Mg53     He539    10.001   1_565     S
B54     Mg53    9.999   1_545     S
B54     N762    10.0   .     S
B54     Mg55    9.999   .     S
Mg55     He535    10.001   1_545     S
Mg55     Li56    10.0   .     S
S57     C604    10.0   .     S
S57     C580    10.0   .     S
S57     Ne58    10.0   .     S
Ne58     Li252    10.001   .     S
S59     C654    10.0   .     S
S59     C586    10.0   .     S
S59     Ne60    10.0   .     S
Ne60     Li236    10.001   .     S
Ne60     Li96    10.001   .     S
S61     C656    10.0   .     S
S61     C660    10.0   .     S
S61     Ne62    10.0   .     S
Ne62     Li247    10.001   .     S
Ne62     Li67    10.001   .     S
S63     C646    10.0   .     S
S63     C629    10.0   .     S
S63     Ne64    10.0   .     S
Ne64     Li108    10.001   .     S
Ne64     Li303    10.001   .     S
S65     C651    10.0   .     S
S65     C642    10.0   .     S
S65     Ne66    10.0   .     S
Ne66     Li83    10.001   .     S
Ne66     Li158    10.001   .     S
Li67     Mg87    10.0   .     S
Li67     Mg69    10.0   .     S
Li68     Mg71    10.0   .     S
Li68     Mg74    10.0   .     S
Mg69     B70    9.999   .     S
Mg69     He487    10.001   .     S
B70     N756    10.0   .     S
B70     Mg71    9.999   .     S
Mg71     He514    10.001   .     S
Mg72     B73    9.999   .     S
Mg72     He487    10.001   .     S
Mg72     Li78    10.0   .     S
B73     N720    10.0   .     S
B73     Mg74    9.999   .     S
Mg74     He501    10.001   .     S
Mg75     B76    9.999   .     S
Mg75     He501    10.001   .     S
Mg75     Li83    10.0   .     S
B76     N807    10.0   .     S
B76     Mg77    9.999   .     S
Mg77     He565    10.001   .     S
Mg77     Li78    10.0   .     S
Li79     Mg82    10.0   .     S
Li79     Mg86    10.0   .     S
Li79     Ne92    10.001   .     S
Mg80     B81    9.999   .     S
Mg80     He546    10.001   .     S
Mg80     Li90    10.0   .     S
B81     N1521    10.0   .     S
B81     Mg82    9.999   .     S
Mg82     He557    10.001   .     S
Li83     Mg84    10.0   .     S
Mg84     B85    9.999   .     S
Mg84     He546    10.001   .     S
B85     N1542    10.0   .     S
B85     Mg86    9.999   .     S
Mg86     He565    10.001   .     S
Mg87     B88    9.999   .     S
Mg87     He557    10.001   .     S
B88     N702    10.0   .     S
B88     Mg89    9.999   .     S
Mg89     He514    10.001   .     S
Mg89     Li90    10.0   .     S
Li90     Ne120    10.001   .     S
S91     C612    10.0   .     S
S91     C578    10.0   .     S
S91     Ne92    10.0   .     S
Ne92     Li116    10.001   .     S
Mg93     B94    9.999   .     S
Mg93     He556    10.001   .     S
Mg93     Li96    10.0   .     S
B94     N711    10.0   .     S
B94     Mg95    9.999   .     S
Mg95     He508    10.001   .     S
Mg95     Li108    10.0   .     S
Li96     Mg97    10.0   .     S
Mg97     B98    9.999   .     S
Mg97     He485    10.001   .     S
B98     N735    10.0   .     S
B98     Mg99    9.999   .     S
Mg99     He508    10.001   .     S
Mg99     Li100    10.0   .     S
Li100     Mg103    10.0   .     S
Mg101     B102    9.999   .     S
Mg101     He485    10.001   .     S
Mg101     Li104    10.0   .     S
B102     N918    10.0   .     S
B102     Mg103    9.999   .     S
Mg103     He562    10.001   .     S
Li104     Mg109    10.0   .     S
Mg105     B106    9.999   .     S
Mg105     He576    10.001   .     S
Mg105     Li108    10.0   .     S
B106     N1530    10.0   .     S
B106     Mg107    9.999   .     S
Mg107     He556    10.001   .     S
Mg107     Li116    10.0   .     S
Mg109     B110    9.999   .     S
Mg109     He564    10.001   .     S
B110     N771    10.0   .     S
B110     Mg111    9.999   .     S
Mg111     He562    10.001   .     S
Mg111     Li112    10.0   .     S
Li112     Mg113    10.0   .     S
Li112     Ne118    10.001   .     S
Mg113     B114    9.999   .     S
Mg113     He576    10.001   .     S
B114     N1539    10.0   .     S
B114     Mg115    9.999   .     S
Mg115     He564    10.001   .     S
Mg115     Li116    10.0   .     S
S117     C644    10.0   .     S
S117     C645    10.0   .     S
S117     Ne118    10.0   .     S
Ne118     Li357    10.001   .     S
S119     C596    10.0   .     S
S119     C635    10.0   .     S
S119     Ne120    10.0   .     S
Ne120     Li138    10.001   .     S
S121     C641    10.0   .     S
S121     C587    10.0   .     S
S121     Ne122    10.0   .     S
Ne122     Li142    10.001   .     S
Ne122     Li361    10.001   .     S
Mg123     B124    9.999   .     S
Mg123     He496    10.001   .     S
Mg123     Li143    10.0   .     S
B124     N1038    10.0   .     S
B124     Mg125    9.999   .     S
Mg125     He532    10.001   .     S
Mg125     Li133    10.0   .     S
Mg126     B127    9.999   .     S
Mg126     He520    10.001   .     S
Mg126     Li138    10.0   .     S
B127     N753    10.0   .     S
B127     Mg128    9.999   .     S
Mg128     He540    10.001   .     S
Mg128     Li129    10.0   .     S
Li129     Mg130    10.0   .     S
Li129     Ne148    10.001   .     S
Mg130     B131    9.999   .     S
Mg130     He558    10.001   .     S
B131     N690    10.0   .     S
B131     Mg132    9.999   .     S
Mg132     He520    10.001   .     S
Mg132     Li137    10.0   .     S
Li133     Mg134    10.0   .     S
Li133     Ne150    10.001   .     S
Mg134     B135    9.999   1_556     S
Mg134     He558    10.001   1_556     S
B135     Mg134    9.999   1_554     S
B135     N696    10.0   .     S
B135     Mg136    9.999   .     S
Mg136     He496    10.001   1_554     S
Mg136     Li137    10.0   .     S
Li138     Mg141    10.0   .     S
Mg139     B140    9.999   1_556     S
Mg139     He540    10.001   1_556     S
Mg139     Li142    10.0   .     S
B140     Mg139    9.999   1_554     S
B140     N675    10.0   .     S
B140     Mg141    9.999   .     S
Mg141     He499    10.001   1_554     S
Li142     Mg146    10.0   .     S
Li143     Mg144    10.0   .     S
Mg144     B145    9.999   .     S
Mg144     He499    10.001   .     S
B145     N750    10.0   .     S
B145     Mg146    9.999   .     S
Mg146     He532    10.001   .     S
S147     C632    10.0   .     S
S147     C595    10.0   .     S
S147     Ne148    10.0   .     S
Ne148     Li223    10.001   .     S
S149     C650    10.0   .     S
S149     C583    10.0   .     S
S149     Ne150    10.0   .     S
Ne150     Li331    10.001   .     S
S151     C658    10.0   .     S
S151     C659    10.0   .     S
S151     Ne152    10.0   .     S
Ne152     Li266    10.001   .     S
Ne152     Li179    10.001   .     S
S153     C657    10.0   .     S
S153     C600    10.0   .     S
S153     Ne154    10.0   .     S
Ne154     Li285    10.001   .     S
Ne154     Li167    10.001   .     S
Mg155     B156    9.999   .     S
Mg155     He493    10.001   .     S
Mg155     Li171    10.0   .     S
B156     N1035    10.0   .     S
B156     Mg157    9.999   .     S
Mg157     He500    10.001   .     S
Mg157     Li158    10.0   .     S
Li158     Mg159    10.0   .     S
Mg159     B160    9.999   .     S
Mg159     He548    10.001   .     S
B160     N1545    10.0   .     S
B160     Mg161    9.999   .     S
Mg161     He493    10.001   .     S
Mg161     Li162    10.0   .     S
Li162     Mg170    10.0   .     S
Li162     Ne204    10.001   .     S
Li163     Mg164    10.0   .     S
Li163     Mg168    10.0   .     S
Mg164     B165    9.999   .     S
Mg164     He517    10.001   .     S
B165     N681    10.0   .     S
B165     Mg166    9.999   .     S
Mg166     He561    10.001   .     S
Mg166     Li167    10.0   .     S
Li167     Mg176    10.0   .     S
Mg168     B169    9.999   .     S
Mg168     He548    10.001   .     S
B169     N714    10.0   .     S
B169     Mg170    9.999   .     S
Mg170     He561    10.001   .     S
Li171     Mg172    10.0   .     S
Li171     Ne260    10.001   .     S
Mg172     B173    9.999   .     S
Mg172     He489    10.001   .     S
B173     N804    10.0   .     S
B173     Mg174    9.999   .     S
Mg174     He500    10.001   .     S
Mg174     Li175    10.0   .     S
Li175     Mg178    10.0   .     S
Li175     Ne424    10.001   .     S
Mg176     B177    9.999   .     S
Mg176     He489    10.001   .     S
B177     N774    10.0   .     S
B177     Mg178    9.999   .     S
Mg178     He517    10.001   .     S
Li179     Mg195    10.0   .     S
Li179     Mg180    10.0   .     S
Mg180     B181    9.999   .     S
Mg180     He483    10.001   .     S
B181     N765    10.0   .     S
B181     Mg182    9.999   .     S
Mg182     He513    10.001   .     S
Mg182     Li186    10.0   .     S
Mg183     B184    9.999   .     S
Mg183     He570    10.001   .     S
Mg183     Li194    10.0   .     S
B184     N1548    10.0   .     S
B184     Mg185    9.999   .     S
Mg185     He571    10.001   .     S
Mg185     Li202    10.0   .     S
Li186     Mg189    10.0   .     S
Li186     Ne480    10.001   .     S
Mg187     B188    9.999   .     S
Mg187     He483    10.001   .     S
Mg187     Li193    10.0   .     S
B188     N723    10.0   .     S
B188     Mg189    9.999   .     S
Mg189     He502    10.001   .     S
Mg190     B191    9.999   .     S
Mg190     He502    10.001   .     S
Mg190     Li194    10.0   .     S
B191     N1137    10.0   .     S
B191     Mg192    9.999   .     S
Mg192     He571    10.001   .     S
Mg192     Li193    10.0   .     S
Li193     Ne262    10.001   .     S
Mg195     B196    9.999   .     S
Mg195     He566    10.001   .     S
B196     N708    10.0   .     S
B196     Mg197    9.999   .     S
Mg197     He513    10.001   .     S
Mg197     Li198    10.0   .     S
Li198     Mg199    10.0   .     S
Mg199     B200    9.999   .     S
Mg199     He570    10.001   .     S
B200     N1527    10.0   .     S
B200     Mg201    9.999   .     S
Mg201     He566    10.001   .     S
Mg201     Li202    10.0   .     S
Li202     Ne204    10.001   .     S
S203     C581    10.0   .     S
S203     C579    10.0   .     S
S203     Ne204    10.0   .     S
S205     C662    10.0   .     S
S205     C607    10.0   .     S
S205     Ne206    10.0   .     S
Ne206     Li217    10.001   .     S
Ne206     Li286    10.001   .     S
Mg207     B208    9.999   .     S
Mg207     He512    10.001   .     S
Mg207     Li230    10.0   .     S
B208     N1335    10.0   .     S
B208     Mg209    9.999   .     S
Mg209     He529    10.001   .     S
Mg209     Li221    10.0   .     S
Mg210     B211    9.999   .     S
Mg210     He531    10.001   .     S
Mg210     Li223    10.0   .     S
B211     N786    10.0   .     S
B211     Mg212    9.999   .     S
Mg212     He521    10.001   .     S
Mg212     Li217    10.0   .     S
Mg213     B214    9.999   1_556     S
Mg213     He531    10.001   1_556     S
Mg213     Li216    10.0   .     S
B214     Mg213    9.999   1_554     S
B214     N1023    10.0   .     S
B214     Mg215    9.999   .     S
Mg215     He507    10.001   1_554     S
Mg215     Li217    10.0   .     S
Li216     Mg229    10.0   .     S
Li216     Ne342    10.001   .     S
Mg218     B219    9.999   1_556     S
Mg218     He543    10.001   1_556     S
Mg218     Li221    10.0   .     S
B219     Mg218    9.999   1_554     S
B219     N903    10.0   .     S
B219     Mg220    9.999   .     S
Mg220     He512    10.001   1_554     S
Mg220     Li222    10.0   .     S
Li221     Ne314    10.001   .     S
Li222     Mg224    10.0   .     S
Li222     Ne232    10.001   .     S
Li223     Mg226    10.0   .     S
Mg224     B225    9.999   .     S
Mg224     He521    10.001   .     S
B225     N1422    10.0   .     S
B225     Mg226    9.999   .     S
Mg226     He543    10.001   .     S
Mg227     B228    9.999   .     S
Mg227     He507    10.001   .     S
Mg227     Li230    10.0   .     S
B228     N1428    10.0   .     S
B228     Mg229    9.999   .     S
Mg229     He529    10.001   .     S
S231     C648    10.0   .     S
S231     C608    10.0   .     S
S231     Ne232    10.0   .     S
Ne232     Li248    10.001   .     S
Mg233     B234    9.999   1_565     S
Mg233     He494    10.001   1_565     S
Mg233     Li236    10.0   .     S
B234     Mg233    9.999   1_545     S
B234     N912    10.0   .     S
B234     Mg235    9.999   .     S
Mg235     He506    10.001   1_545     S
Mg235     Li237    10.0   .     S
Li236     Mg240    10.0   .     S
Li237     Mg243    10.0   .     S
Li237     Ne258    10.001   .     S
Mg238     B239    9.999   .     S
Mg238     He506    10.001   .     S
Mg238     Li256    10.0   .     S
B239     N1239    10.0   .     S
B239     Mg240    9.999   .     S
Mg240     He541    10.001   .     S
Mg241     B242    9.999   .     S
Mg241     He494    10.001   .     S
Mg241     Li252    10.0   .     S
B242     N1431    10.0   .     S
B242     Mg243    9.999   .     S
Mg243     He526    10.001   .     S
Mg244     B245    9.999   1_565     S
Mg244     He536    10.001   1_565     S
Mg244     Li247    10.0   .     S
B245     Mg244    9.999   1_545     S
B245     N1026    10.0   .     S
B245     Mg246    9.999   .     S
Mg246     He510    10.001   1_545     S
Mg246     Li248    10.0   .     S
Li247     Mg255    10.0   .     S
Li248     Mg249    10.0   .     S
Mg249     B250    9.999   .     S
Mg249     He526    10.001   .     S
B250     N780    10.0   .     S
B250     Mg251    9.999   .     S
Mg251     He536    10.001   .     S
Mg251     Li252    10.0   .     S
Mg253     B254    9.999   .     S
Mg253     He510    10.001   .     S
Mg253     Li256    10.0   .     S
B254     N783    10.0   .     S
B254     Mg255    9.999   .     S
Mg255     He541    10.001   .     S
S257     C647    10.0   .     S
S257     C610    10.0   .     S
S257     Ne258    10.0   .     S
Ne258     Li267    10.001   .     S
S259     C640    10.0   .     S
S259     C585    10.0   .     S
S259     Ne260    10.0   .     S
Ne260     Li302    10.001   .     S
S261     C637    10.0   .     S
S261     C597    10.0   .     S
S261     Ne262    10.0   .     S
Ne262     Li298    10.001   .     S
Mg263     B264    9.999   1_655     S
Mg263     He534    10.001   1_655     S
Mg263     Li266    10.0   .     S
B264     Mg263    9.999   1_455     S
B264     N1236    10.0   .     S
B264     Mg265    9.999   .     S
Mg265     He511    10.001   1_455     S
Mg265     Li267    10.0   .     S
Li266     Mg277    10.0   .     S
Li267     Mg268    10.0   .     S
Mg268     B269    9.999   .     S
Mg268     He527    10.001   .     S
B269     N1425    10.0   .     S
B269     Mg270    9.999   .     S
Mg270     He534    10.001   .     S
Mg270     Li274    10.0   .     S
Mg271     B272    9.999   .     S
Mg271     He537    10.001   .     S
Mg271     Li274    10.0   .     S
B272     N1242    10.0   .     S
B272     Mg273    9.999   .     S
Mg273     He527    10.001   .     S
Mg273     Li286    10.0   .     S
Li274     Ne312    10.001   .     S
Mg275     B276    9.999   .     S
Mg275     He511    10.001   .     S
Mg275     Li278    10.0   .     S
B276     N1329    10.0   .     S
B276     Mg277    9.999   .     S
Mg277     He545    10.001   .     S
Li278     Mg279    10.0   .     S
Li278     Ne394    10.001   .     S
Mg279     B280    9.999   .     S
Mg279     He505    10.001   .     S
B280     N1332    10.0   .     S
B280     Mg281    9.999   .     S
Mg281     He545    10.001   .     S
Mg281     Li285    10.0   .     S
Mg282     B283    9.999   1_655     S
Mg282     He537    10.001   1_655     S
Mg282     Li285    10.0   .     S
B283     Mg282    9.999   1_455     S
B283     N909    10.0   .     S
B283     Mg284    9.999   .     S
Mg284     He505    10.001   1_455     S
Mg284     Li286    10.0   .     S
Mg287     B288    9.999   .     S
Mg287     He498    10.001   .     S
Mg287     Li290    10.0   .     S
B288     N789    10.0   .     S
B288     Mg289    9.999   .     S
Mg289     He568    10.001   .     S
Mg289     Li302    10.0   .     S
Li290     Mg291    10.0   .     S
Mg291     B292    9.999   .     S
Mg291     He495    10.001   .     S
B292     N1128    10.0   .     S
B292     Mg293    9.999   .     S
Mg293     He568    10.001   .     S
Mg293     Li298    10.0   .     S
Li294     Mg297    10.0   .     S
Li294     Mg307    10.0   .     S
Li294     Ne340    10.001   .     S
Mg295     B296    9.999   1_655     S
Mg295     He533    10.001   1_655     S
Mg295     Li298    10.0   .     S
B296     Mg295    9.999   1_455     S
B296     N678    10.0   .     S
B296     Mg297    9.999   .     S
Mg297     He495    10.001   1_455     S
Mg299     B300    9.999   1_655     S
Mg299     He542    10.001   1_655     S
Mg299     Li302    10.0   .     S
B300     Mg299    9.999   1_455     S
B300     N705    10.0   .     S
B300     Mg301    9.999   .     S
Mg301     He498    10.001   1_455     S
Mg301     Li303    10.0   .     S
Li303     Mg306    10.0   .     S
Mg304     B305    9.999   .     S
Mg304     He542    10.001   .     S
Mg304     Li310    10.0   .     S
B305     N687    10.0   .     S
B305     Mg306    9.999   .     S
Mg306     He524    10.001   .     S
Mg307     B308    9.999   .     S
Mg307     He524    10.001   .     S
B308     N738    10.0   .     S
B308     Mg309    9.999   .     S
Mg309     He533    10.001   .     S
Mg309     Li310    10.0   .     S
Li310     Ne312    10.001   .     S
S311     C594    10.0   .     S
S311     C601    10.0   .     S
S311     Ne312    10.0   .     S
S313     C653    10.0   .     S
S313     C584    10.0   .     S
S313     Ne314    10.0   .     S
Ne314     Li326    10.001   .     S
Mg315     B316    9.999   .     S
Mg315     He559    10.001   .     S
Mg315     Li331    10.0   .     S
B316     N1032    10.0   .     S
B316     Mg317    9.999   .     S
Mg317     He503    10.001   .     S
Mg317     Li318    10.0   .     S
Li318     Mg319    10.0   .     S
Mg319     B320    9.999   .     S
Mg319     He574    10.001   .     S
B320     N1533    10.0   .     S
B320     Mg321    9.999   .     S
Mg321     He559    10.001   .     S
Mg321     Li322    10.0   .     S
Li322     Mg330    10.0   .     S
Li322     Ne368    10.001   .     S
Mg323     B324    9.999   .     S
Mg323     He518    10.001   .     S
Mg323     Li327    10.0   .     S
B324     N684    10.0   .     S
B324     Mg325    9.999   .     S
Mg325     He554    10.001   .     S
Mg325     Li326    10.0   .     S
Li326     Mg336    10.0   .     S
Li327     Mg328    10.0   .     S
Mg328     B329    9.999   .     S
Mg328     He574    10.001   .     S
B329     N717    10.0   .     S
B329     Mg330    9.999   .     S
Mg330     He554    10.001   .     S
Li331     Mg332    10.0   .     S
Mg332     B333    9.999   .     S
Mg332     He486    10.001   .     S
B333     N1134    10.0   .     S
B333     Mg334    9.999   .     S
Mg334     He503    10.001   .     S
Mg334     Li335    10.0   .     S
Li335     Mg338    10.0   .     S
Mg336     B337    9.999   .     S
Mg336     He486    10.001   .     S
B337     N741    10.0   .     S
B337     Mg338    9.999   .     S
Mg338     He518    10.001   .     S
S339     C598    10.0   .     S
S339     C633    10.0   .     S
S339     Ne340    10.0   .     S
Ne340     Li362    10.001   .     S
S341     C655    10.0   .     S
S341     C599    10.0   .     S
S341     Ne342    10.0   .     S
Ne342     Li346    10.001   .     S
Mg343     B344    9.999   .     S
Mg343     He555    10.001   .     S
Mg343     Li346    10.0   .     S
B344     N699    10.0   .     S
B344     Mg345    9.999   .     S
Mg345     He509    10.001   .     S
Mg345     Li362    10.0   .     S
Li346     Mg351    10.0   .     S
Mg347     B348    9.999   .     S
Mg347     He488    10.001   .     S
Mg347     Li361    10.0   .     S
B348     N726    10.0   .     S
B348     Mg349    9.999   .     S
Mg349     He504    10.001   .     S
Mg349     Li350    10.0   .     S
Li350     Mg353    10.0   .     S
Li350     Ne452    10.001   .     S
Mg351     B352    9.999   .     S
Mg351     He488    10.001   .     S
B352     N732    10.0   .     S
B352     Mg353    9.999   .     S
Mg353     He509    10.001   .     S
Mg354     B355    9.999   .     S
Mg354     He530    10.001   .     S
Mg354     Li357    10.0   .     S
B355     N1536    10.0   .     S
B355     Mg356    9.999   .     S
Mg356     He560    10.001   .     S
Mg356     Li366    10.0   .     S
Li357     Mg358    10.0   .     S
Mg358     B359    9.999   .     S
Mg358     He504    10.001   .     S
B359     N927    10.0   .     S
B359     Mg360    9.999   .     S
Mg360     He560    10.001   .     S
Mg360     Li361    10.0   .     S
Li362     Mg363    10.0   .     S
Mg363     B364    9.999   .     S
Mg363     He530    10.001   .     S
B364     N1524    10.0   .     S
B364     Mg365    9.999   .     S
Mg365     He555    10.001   .     S
Mg365     Li366    10.0   .     S
Li366     Ne368    10.001   .     S
S367     C616    10.0   .     S
S367     C577    10.0   .     S
S367     Ne368    10.0   .     S
Li369     Mg386    10.0   .     S
Li369     Mg372    10.0   .     S
Li369     Ne394    10.001   .     S
Mg370     B371    9.999   1_556     S
Mg370     He550    10.001   1_556     S
Mg370     Li376    10.0   .     S
B371     Mg370    9.999   1_554     S
B371     N792    10.0   .     S
B371     Mg372    9.999   .     S
Mg372     He515    10.001   1_554     S
Mg373     B374    9.999   .     S
Mg373     He515    10.001   1_455     S
Mg373     Li380    10.0   .     S
B374     N1131    10.0   .     S
B374     Mg375    9.999   1_455     S
Mg375     B374    9.999   1_655     S
Mg375     He549    10.001   1_655     S
Mg375     Li376    10.0   .     S
Mg377     B378    9.999   .     S
Mg377     He519    10.001   1_545     S
Mg377     Li380    10.0   .     S
B378     N1434    10.0   .     S
B378     Mg379    9.999   1_545     S
Mg379     B378    9.999   1_565     S
Mg379     He549    10.001   1_565     S
Mg379     Li384    10.0   .     S
Mg381     B382    9.999   .     S
Mg381     He519    10.001   1_554     S
Mg381     Li385    10.0   .     S
B382     N924    10.0   .     S
B382     Mg383    9.999   1_554     S
Mg383     B382    9.999   1_556     S
Mg383     He538    10.001   1_556     S
Mg383     Li384    10.0   .     S
Li385     Mg390    10.0   .     S
Mg386     B387    9.999   .     S
Mg386     He516    10.001   1_545     S
B387     N801    10.0   .     S
B387     Mg388    9.999   1_545     S
Mg388     B387    9.999   1_565     S
Mg388     He550    10.001   1_565     S
Mg388     Li389    10.0   .     S
Li389     Mg392    10.0   .     S
Li389     Ne396    10.001   .     S
Mg390     B391    9.999   .     S
Mg390     He516    10.001   1_455     S
B391     N906    10.0   .     S
B391     Mg392    9.999   1_455     S
Mg392     B391    9.999   1_655     S
Mg392     He538    10.001   1_655     S
S393     C623    10.0   .     S
S393     C603    10.0   .     S
S393     Ne394    10.0   .     S
S395     C666    10.0   .     S
S395     C671    10.0   .     S
S395     Ne396    10.0   .     S
Ne396     Li405    10.001   .     S
S397     C667    10.0   .     S
S397     C592    10.0   .     S
S397     Ne398    10.0   .     S
Ne398     Li474    10.001   .     S
Ne398     Li414    10.001   .     S
Mg399     B400    9.999   .     S
Mg399     He573    10.001   .     S
Mg399     Li410    10.0   .     S
B400     N1146    10.0   .     S
B400     Mg401    9.999   .     S
Mg401     He572    10.001   .     S
Mg401     Li419    10.0   .     S
Mg402     B403    9.999   .     S
Mg402     He547    10.001   1_554     S
Mg402     Li409    10.0   .     S
B403     N930    10.0   .     S
B403     Mg404    9.999   1_554     S
Mg404     B403    9.999   1_556     S
Mg404     He492    10.001   1_556     S
Mg404     Li414    10.0   .     S
Li405     Mg417    10.0   .     S
Li405     Mg406    10.0   .     S
Mg406     B407    9.999   .     S
Mg406     He492    10.001   .     S
B407     N795    10.0   .     S
B407     Mg408    9.999   .     S
Mg408     He528    10.001   .     S
Mg408     Li409    10.0   .     S
Li410     Mg411    10.0   .     S
Mg411     B412    9.999   .     S
Mg411     He547    10.001   .     S
B412     N936    10.0   .     S
B412     Mg413    9.999   .     S
Mg413     He572    10.001   .     S
Mg413     Li414    10.0   .     S
Mg415     B416    9.999   .     S
Mg415     He528    10.001   .     S
Mg415     Li418    10.0   .     S
B416     N798    10.0   .     S
B416     Mg417    9.999   .     S
Mg417     He490    10.001   .     S
Li418     Mg420    10.0   .     S
Li418     Ne424    10.001   .     S
Li419     Mg422    10.0   .     S
Li419     Ne426    10.001   .     S
Mg420     B421    9.999   .     S
Mg420     He573    10.001   1_554     S
B421     N1140    10.0   .     S
B421     Mg422    9.999   1_554     S
Mg422     B421    9.999   1_556     S
Mg422     He490    10.001   1_556     S
S423     C630    10.0   .     S
S423     C602    10.0   .     S
S423     Ne424    10.0   .     S
S425     C668    10.0   .     S
S425     C593    10.0   .     S
S425     Ne426    10.0   .     S
Ne426     Li442    10.001   .     S
Li427     Mg445    10.0   .     S
Li427     Mg428    10.0   .     S
Mg428     B429    9.999   .     S
Mg428     He491    10.001   .     S
B429     N915    10.0   .     S
B429     Mg430    9.999   .     S
Mg430     He523    10.001   .     S
Mg430     Li434    10.0   .     S
Mg431     B432    9.999   .     S
Mg431     He551    10.001   .     S
Mg431     Li438    10.0   .     S
B432     N744    10.0   .     S
B432     Mg433    9.999   .     S
Mg433     He567    10.001   .     S
Mg433     Li446    10.0   .     S
Li434     Mg435    10.0   .     S
Li434     Ne452    10.001   .     S
Mg435     B436    9.999   .     S
Mg435     He575    10.001   1_455     S
B436     N1143    10.0   .     S
B436     Mg437    9.999   1_455     S
Mg437     B436    9.999   1_655     S
Mg437     He491    10.001   1_655     S
Mg437     Li442    10.0   .     S
Li438     Mg439    10.0   .     S
Mg439     B440    9.999   .     S
Mg439     He575    10.001   .     S
B440     N1149    10.0   .     S
B440     Mg441    9.999   .     S
Mg441     He567    10.001   .     S
Mg441     Li442    10.0   .     S
Mg443     B444    9.999   .     S
Mg443     He523    10.001   .     S
Mg443     Li447    10.0   .     S
B444     N921    10.0   .     S
B444     Mg445    9.999   .     S
Mg445     He484    10.001   .     S
Li446     Mg450    10.0   .     S
Li446     Ne454    10.001   .     S
Li447     Mg448    10.0   .     S
Mg448     B449    9.999   .     S
Mg448     He551    10.001   1_455     S
B449     N810    10.0   .     S
B449     Mg450    9.999   1_455     S
Mg450     B449    9.999   1_655     S
Mg450     He484    10.001   1_655     S
S451     C617    10.0   .     S
S451     C590    10.0   .     S
S451     Ne452    10.0   .     S
S453     C669    10.0   .     S
S453     C591    10.0   .     S
S453     Ne454    10.0   .     S
Ne454     Li470    10.001   .     S
Li455     Mg473    10.0   .     S
Li455     Mg456    10.0   .     S
Mg456     B457    9.999   .     S
Mg456     He482    10.001   .     S
B457     N1029    10.0   .     S
B457     Mg458    9.999   .     S
Mg458     He522    10.001   .     S
Mg458     Li466    10.0   .     S
Mg459     B460    9.999   .     S
Mg459     He553    10.001   .     S
Mg459     Li462    10.0   .     S
B460     N768    10.0   .     S
B460     Mg461    9.999   .     S
Mg461     He569    10.001   .     S
Mg461     Li474    10.0   .     S
Li462     Mg463    10.0   .     S
Mg463     B464    9.999   .     S
Mg463     He544    10.001   .     S
B464     N816    10.0   .     S
B464     Mg465    9.999   .     S
Mg465     He569    10.001   .     S
Mg465     Li470    10.0   .     S
Li466     Mg467    10.0   .     S
Li466     Ne480    10.001   .     S
Mg467     B468    9.999   .     S
Mg467     He544    10.001   1_545     S
B468     N813    10.0   .     S
B468     Mg469    9.999   1_545     S
Mg469     B468    9.999   1_565     S
Mg469     He482    10.001   1_565     S
Mg469     Li470    10.0   .     S
Mg471     B472    9.999   .     S
Mg471     He522    10.001   .     S
Mg471     Li475    10.0   .     S
B472     N1125    10.0   .     S
B472     Mg473    9.999   .     S
Mg473     He481    10.001   .     S
Li474     Mg478    10.0   .     S
Li475     Mg476    10.0   .     S
Mg476     B477    9.999   .     S
Mg476     He553    10.001   1_545     S
B477     N933    10.0   .     S
B477     Mg478    9.999   1_545     S
Mg478     B477    9.999   1_565     S
Mg478     He481    10.001   1_565     S
S479     C614    10.0   .     S
S479     C625    10.0   .     S
S479     Ne480    10.0   .     S
He481     Mg478    10.001   1_545     S
He481     Na1387    10.0   .     S
He482     Mg469    10.001   1_545     S
He482     Na1484    10.0   .     S
He483     Na1444    10.0   .     S
He484     Mg450    10.001   1_455     S
He484     Na1486    10.0   .     S
He485     Na1459    10.0   .     S
He486     Na1352    10.0   .     S
He487     Na1345    10.0   .     S
He488     Na1274    10.0   .     S
He489     Na1252    10.0   .     S
He490     Mg422    10.001   1_554     S
He490     Na1272    10.0   .     S
He491     Mg437    10.001   1_455     S
He491     Na1262    10.0   .     S
He492     Mg404    10.001   1_554     S
He492     Na1385    10.0   .     S
He493     Na1073    10.0   .     S
He494     Mg233    10.001   1_545     S
He494     Na1453    10.0   .     S
He495     Mg297    10.001   1_655     S
He495     Na1151    10.0   .     S
He496     Mg136    10.001   1_556     S
He496     Na1174    10.0   .     S
He497     Mg42    10.001   1_565     S
He497     Na818    10.0   .     S
He498     Mg301    10.001   1_655     S
He498     Na841    10.0   .     S
He499     Mg141    10.001   1_556     S
He499     Na943    10.0   .     S
He500     Na856    10.0   .     S
He501     Na861    10.0   .     S
He502     Na1194    10.0   .     S
He503     Na1189    10.0   .     S
He504     Na976    10.0   .     S
He505     Mg284    10.001   1_655     S
He505     Na1204    10.0   .     S
He506     Mg235    10.001   1_565     S
He506     Na876    10.0   .     S
He507     Mg215    10.001   1_556     S
He507     Na1199    10.0   .     S
He508     Na846    10.0   .     S
He509     Na1156    10.0   .     S
He510     Mg246    10.001   1_565     S
He510     Na996    10.0   .     S
He511     Mg265    10.001   1_655     S
He511     Na865    10.0   .     S
He512     Mg220    10.001   1_556     S
He512     Na991    10.0   .     S
He513     Na822    10.0   .     S
He514     Na937    10.0   .     S
He515     Mg372    10.001   1_556     S
He515     Mg373    10.001   1_655     S
He515     Na1208    10.0   .     S
He516     Mg386    10.001   1_565     S
He516     Mg390    10.001   1_655     S
He516     Na871    10.0   .     S
He517     Na1178    10.0   .     S
He518     Na957    10.0   .     S
He519     Mg377    10.001   1_565     S
He519     Mg381    10.001   1_556     S
He519     Na986    10.0   .     S
He520     Na1557    10.0   .     S
He521     Na1594    10.0   .     S
He522     Na1183    10.0   .     S
He523     Na980    10.0   .     S
He524     Na1572    10.0   .     S
He525     Na1592    10.0   .     S
He526     Na1607    10.0   .     S
He527     Na1602    10.0   .     S
He528     Na850    10.0   .     S
He529     Na1478    10.0   .     S
He530     Na1567    10.0   .     S
He531     Mg213    10.001   1_554     S
He531     Na1287    10.0   .     S
He532     Na1053    10.0   .     S
He533     Mg295    10.001   1_455     S
He533     Na1449    10.0   .     S
He534     Mg263    10.001   1_455     S
He534     Na1435    10.0   .     S
He535     Mg55    10.001   1_565     S
He535     Na953    10.0   .     S
He536     Mg244    10.001   1_545     S
He536     Na1336    10.0   .     S
He537     Mg282    10.001   1_455     S
He537     Na1250    10.0   .     S
He538     Mg383    10.001   1_554     S
He538     Mg392    10.001   1_455     S
He538     Na1267    10.0   .     S
He539     Mg53    10.001   1_545     S
He539     Na1464    10.0   .     S
He540     Mg139    10.001   1_554     S
He540     Na1282    10.0   .     S
He541     Na1301    10.0   .     S
He542     Mg299    10.001   1_455     S
He542     Na1256    10.0   .     S
He543     Mg218    10.001   1_554     S
He543     Na1365    10.0   .     S
He544     Mg467    10.001   1_565     S
He544     Na831    10.0   .     S
He545     Na1379    10.0   .     S
He546     Na1552    10.0   .     S
He547     Mg402    10.001   1_556     S
He547     Na951    10.0   .     S
He548     Na1562    10.0   .     S
He549     Mg375    10.001   1_455     S
He549     Mg379    10.001   1_545     S
He549     Na1494    10.0   .     S
He550     Mg370    10.001   1_554     S
He550     Mg388    10.001   1_545     S
He550     Na1395    10.0   .     S
He551     Mg448    10.001   1_655     S
He551     Na833    10.0   .     S
He552     Mg40    10.001   1_545     S
He552     Na1349    10.0   .     S
He553     Mg476    10.001   1_565     S
He553     Na966    10.0   .     S
He554     Na1469    10.0   .     S
He555     Na1471    10.0   .     S
He556     Na1292    10.0   .     S
He557     Na1294    10.0   .     S
He558     Mg134    10.001   1_554     S
He558     Na1357    10.0   .     S
He559     Na1045    10.0   .     S
He560     Na1043    10.0   .     S
He561     Na1372    10.0   .     S
He562     Na970    10.0   .     S
He563     Na1067    10.0   .     S
He564     Na1058    10.0   .     S
He565     Na1060    10.0   .     S
He566     Na1370    10.0   .     S
He567     Na1088    10.0   .     S
He568     Na1082    10.0   .     S
He569     Na1093    10.0   .     S
He570     Na1585    10.0   .     S
He571     Na1075    10.0   .     S
He572     Na1098    10.0   .     S
He573     Mg420    10.001   1_556     S
He573     Na1166    10.0   .     S
He574     Na1587    10.0   .     S
He575     Mg435    10.001   1_655     S
He575     Na1163    10.0   .     S
He576     Na1577    10.0   .     S
C577     V1534    10.001   .     S
C577     V1531    10.001   .     S
C578     V1540    10.001   .     S
C578     V1538    10.001   .     S
C579     V1543    10.001   .     S
C579     V1546    10.001   .     S
C580     V1430    10.001   .     S
C580     V692    10.001   .     S
C581     V1525    10.001   .     S
C581     V712    10.001   .     S
C582     V727    10.001   .     S
C582     V769    10.001   .     S
C583     V1036    10.001   .     S
C583     V1030    10.001   .     S
C584     V1334    10.001   .     S
C584     V683    10.001   .     S
C585     V788    10.001   .     S
C585     V1033    10.001   .     S
C586     V1237    10.001   .     S
C586     V710    10.001   .     S
C587     V748    10.001   .     S
C587     V926    10.001   .     S
C588     V757    10.001   .     S
C588     V806    10.001   .     S
C589     V718    10.001   .     S
C589     V793    10.001   .     S
C590     V724    10.001   .     S
C590     V913    10.001   .     S
C591     V742    10.001   .     S
C591     V815    10.001   .     S
C592     V935    10.001   .     S
C592     V766    10.001   .     S
C593     V1145    10.001   .     S
C593     V1148    10.001   .     S
C594     V1241    10.001   .     S
C594     V685    10.001   .     S
C595     V1420    10.001   .     S
C595     V688    10.001   .     S
C596     V673    10.001   .     S
C596     V701    10.001   .     S
C597     V1126    10.001   .     S
C597     V1136    10.001   .     S
C598     V676    10.001   .     S
C598     V698    10.001   .     S
C599     V1427    10.001   .     S
C599     V697    10.001   .     S
C600     V1331    10.001   .     S
C600     V680    10.001   .     S
C601     V1423    10.001   .     S
C601     V736    10.001   .     S
C602     V773    10.001   .     S
C602     V1138    10.001   .     S
C603     V1327    10.001   .     S
C603     V799    10.001   .     S
C604     V745    10.001   .     S
C604     V778    10.001   .     S
C605     V904    10.001   .     S
C605     V1238    10.001   .     S
C606     V1426    10.001   .     S
C606     V1129    10.001   .     S
C607     V907    10.001   .     S
C607     V1021    10.001   .     S
C608     V1024    10.001   .     S
C608     V901    10.001   .     S
C609     V707    10.001   .     S
C609     V775    10.001   .     S
C610     V1234    10.001   .     S
C610     V910    10.001   .     S
C611     V1123    10.001   .     S
C611     V1132    10.001   .     S
C612     V1519    10.001   .     S
C612     V1529    10.001   .     S
C613     V931    10.001   .     S
C613     V740    10.001   .     S
C614     V811    10.001   .     S
C614     V763    10.001   .     S
C615     V808    10.001   .     S
C615     V734    10.001   .     S
C616     V1522    10.001   .     S
C616     V715    10.001   .     S
C617     V1141    10.001   .     S
C617     V731    10.001   .     S
C618     V928    10.001   .     S
C618     V755    10.001   .     S
C619     V694    10.001   .     S
C619     V679    10.001   .     S
C620     V1127    10.001   .     S
C620     V1147    10.001   .     S
C621     V743    10.001   .     S
C621     V787    10.001   .     S
C622     V749    10.001   .     S
C622     V934    10.001   .     S
C623     V790    10.001   .     S
C623     V1330    10.001   .     S
C624     V758    10.001   .     S
C624     V814    10.001   .     S
C625     V721    10.001   .     S
C625     V1027    10.001   .     S
C626     V916    10.001   .     S
C626     V919    10.001   .     S
C627     V767    10.001   .     S
C627     V728    10.001   .     S
C628     V1144    10.001   .     S
C628     V1037    10.001   .     S
C629     V703    10.001   .     S
C629     V709    10.001   .     S
C630     V803    10.001   .     S
C630     V796    10.001   .     S
C631     V682    10.001   .     S
C631     V760    10.001   .     S
C632     V784    10.001   .     S
C632     V751    10.001   .     S
C633     V1523    10.001   .     S
C633     V737    10.001   .     S
C634     V1526    10.001   .     S
C634     V746    10.001   .     S
C635     V1520    10.001   .     S
C635     V752    10.001   .     S
C636     V781    10.001   .     S
C636     V922    10.001   .     S
C637     V677    10.001   .     S
C637     V722    10.001   .     S
C638     V713    10.001   .     S
C638     V689    10.001   .     S
C639     V716    10.001   .     S
C639     V691    10.001   .     S
C640     V704    10.001   .     S
C640     V802    10.001   .     S
C641     V674    10.001   .     S
C641     V725    10.001   .     S
C642     V1541    10.001   .     S
C642     V1544    10.001   .     S
C643     V1547    10.001   .     S
C643     V1532    10.001   .     S
C644     V770    10.001   .     S
C644     V925    10.001   .     S
C645     V1535    10.001   .     S
C645     V1537    10.001   .     S
C646     V1528    10.001   .     S
C646     V686    10.001   .     S
C647     V1429    10.001   .     S
C647     V1424    10.001   .     S
C648     V779    10.001   .     S
C648     V1421    10.001   .     S
C649     V1031    10.001   .     S
C649     V1135    10.001   .     S
C650     V695    10.001   .     S
C650     V1133    10.001   .     S
C651     V1034    10.001   .     S
C651     V805    10.001   .     S
C652     V1333    10.001   .     S
C652     V1432    10.001   .     S
C653     V902    10.001   .     S
C653     V739    10.001   .     S
C654     V911    10.001   .     S
C654     V733    10.001   .     S
C655     V1022    10.001   .     S
C655     V730    10.001   .     S
C656     V1025    10.001   .     S
C656     V754    10.001   .     S
C657     V908    10.001   .     S
C657     V772    10.001   .     S
C658     V1235    10.001   .     S
C658     V764    10.001   .     S
C659     V1328    10.001   .     S
C659     V706    10.001   .     S
C660     V782    10.001   .     S
C660     V700    10.001   .     S
C661     V761    10.001   .     S
C661     V917    10.001   .     S
C662     V1240    10.001   .     S
C662     V785    10.001   .     S
C663     V776    10.001   .     S
C663     V719    10.001   .     S
C664     V1433    10.001   .     S
C664     V920    10.001   .     S
C665     V791    10.001   .     S
C665     V1124    10.001   .     S
C666     V905    10.001   .     S
C666     V797    10.001   .     S
C667     V932    10.001   .     S
C667     V929    10.001   .     S
C668     V1142    10.001   .     S
C668     V1139    10.001   .     S
C669     V812    10.001   .     S
C669     V809    10.001   .     S
C670     V1130    10.001   .     S
C670     V1028    10.001   .     S
C671     V800    10.001   .     S
C671     V794    10.001   .     S
C672     V923    10.001   .     S
C672     V914    10.001   .     S
V673     N675    9.999   .     S
V673     O1279    10.0   .     S
V674     N675    9.999   1_556     S
V674     O939    10.0   .     S
N675     V674    9.999   1_554     S
V676     N678    9.999   .     S
V676     O1446    10.0   .     S
V677     N678    9.999   1_655     S
V677     O1152    10.0   .     S
N678     V677    9.999   1_455     S
V679     N681    9.999   .     S
V679     O1377    10.0   .     S
V680     N681    9.999   .     S
V680     O1176    10.0   .     S
V682     N684    9.999   .     S
V682     O1476    10.0   .     S
V683     N684    9.999   .     S
V683     O956    10.0   .     S
V685     N687    9.999   .     S
V685     O1575    10.0   .     S
V686     N687    9.999   .     S
V686     O1247    10.0   .     S
V688     N690    9.999   .     S
V688     O1560    10.0   .     S
V689     N690    9.999   .     S
V689     O1361    10.0   .     S
V691     N693    9.999   .     S
V691     O1452    10.0   .     S
V692     N693    9.999   .     S
V692     O1590    10.0   .     S
V694     N696    9.999   .     S
V694     O1354    10.0   .     S
V695     N696    9.999   1_556     S
V695     O1177    10.0   .     S
N696     V695    9.999   1_554     S
V697     N699    9.999   .     S
V697     O1153    10.0   .     S
V698     N699    9.999   .     S
V698     O1473    10.0   .     S
V700     N702    9.999   .     S
V700     O941    10.0   .     S
V701     N702    9.999   .     S
V701     O1296    10.0   .     S
V703     N705    9.999   .     S
V703     O1254    10.0   .     S
V704     N705    9.999   1_655     S
V704     O842    10.0   .     S
N705     V704    9.999   1_455     S
V706     N708    9.999   .     S
V706     O820    10.0   .     S
V707     N708    9.999   .     S
V707     O1373    10.0   .     S
V709     N711    9.999   .     S
V709     O1299    10.0   .     S
V710     N711    9.999   .     S
V710     O844    10.0   .     S
V712     N714    9.999   .     S
V712     O1561    10.0   .     S
V713     N714    9.999   .     S
V713     O1366    10.0   .     S
V715     N717    9.999   .     S
V715     O1591    10.0   .     S
V716     N717    9.999   .     S
V716     O1466    10.0   .     S
V718     N720    9.999   .     S
V718     O1348    10.0   .     S
V719     N720    9.999   .     S
V719     O848    10.0   .     S
V721     N723    9.999   .     S
V721     O1447    10.0   .     S
V722     N723    9.999   .     S
V722     O1181    10.0   .     S
V724     N726    9.999   .     S
V724     O1280    10.0   .     S
V725     N726    9.999   .     S
V725     O979    10.0   .     S
V727     N729    9.999   .     S
V727     O959    10.0   .     S
V728     N729    9.999   .     S
V728     O1062    10.0   .     S
V730     N732    9.999   .     S
V730     O1158    10.0   .     S
V731     N732    9.999   .     S
V731     O1284    10.0   .     S
V733     N735    9.999   .     S
V733     O838    10.0   .     S
V734     N735    9.999   .     S
V734     O1456    10.0   .     S
V736     N738    9.999   .     S
V736     O1569    10.0   .     S
V737     N738    9.999   .     S
V737     O1440    10.0   .     S
V739     N741    9.999   .     S
V739     O963    10.0   .     S
V740     N741    9.999   .     S
V740     O1359    10.0   .     S
V742     N744    9.999   .     S
V742     O834    10.0   .     S
V743     N744    9.999   .     S
V743     O1090    10.0   .     S
V745     N747    9.999   .     S
V745     O1582    10.0   .     S
V746     N747    9.999   .     S
V746     O1341    10.0   .     S
V748     N750    9.999   .     S
V748     O948    10.0   .     S
V749     N750    9.999   .     S
V749     O1046    10.0   .     S
V751     N753    9.999   .     S
V751     O1554    10.0   .     S
V752     N753    9.999   .     S
V752     O1276    10.0   .     S
V754     N756    9.999   .     S
V754     O945    10.0   .     S
V755     N756    9.999   .     S
V755     O1339    10.0   .     S
V757     N759    9.999   .     S
V757     O828    10.0   .     S
V758     N759    9.999   .     S
V758     O1065    10.0   .     S
V760     N762    9.999   .     S
V760     O1462    10.0   .     S
V761     N762    9.999   1_565     S
V761     O954    10.0   .     S
N762     V761    9.999   1_545     S
V763     N765    9.999   .     S
V763     O1439    10.0   .     S
V764     N765    9.999   .     S
V764     O825    10.0   .     S
V766     N768    9.999   .     S
V766     O960    10.0   .     S
V767     N768    9.999   .     S
V767     O1094    10.0   .     S
V769     N771    9.999   .     S
V769     O972    10.0   .     S
V770     N771    9.999   .     S
V770     O1061    10.0   .     S
V772     N774    9.999   .     S
V772     O1171    10.0   .     S
V773     N774    9.999   .     S
V773     O1244    10.0   .     S
V775     N777    9.999   .     S
V775     O1347    10.0   .     S
V776     N777    9.999   1_565     S
V776     O821    10.0   .     S
N777     V776    9.999   1_545     S
V778     N780    9.999   .     S
V778     O1606    10.0   .     S
V779     N780    9.999   .     S
V779     O1343    10.0   .     S
V781     N783    9.999   .     S
V781     O1297    10.0   .     S
V782     N783    9.999   .     S
V782     O984    10.0   .     S
V784     N786    9.999   .     S
V784     O1597    10.0   .     S
V785     N786    9.999   .     S
V785     O1277    10.0   .     S
V787     N789    9.999   .     S
V787     O1081    10.0   .     S
V788     N789    9.999   .     S
V788     O835    10.0   .     S
V790     N792    9.999   .     S
V790     O1390    10.0   .     S
V791     N792    9.999   1_556     S
V791     O1206    10.0   .     S
N792     V791    9.999   1_554     S
V793     N795    9.999   .     S
V793     O1393    10.0   .     S
V794     N795    9.999   .     S
V794     O849    10.0   .     S
V796     N798    9.999   .     S
V796     O1269    10.0   .     S
V797     N798    9.999   .     S
V797     O852    10.0   .     S
V799     N801    9.999   .     S
V799     O1392    10.0   .     S
V800     N801    9.999   1_565     S
V800     O867    10.0   .     S
N801     V800    9.999   1_545     S
V802     N804    9.999   .     S
V802     O854    10.0   .     S
V803     N804    9.999   .     S
V803     O1255    10.0   .     S
V805     N807    9.999   .     S
V805     O1066    10.0   .     S
V806     N807    9.999   .     S
V806     O859    10.0   .     S
V808     N810    9.999   .     S
V808     O1482    10.0   .     S
V809     N810    9.999   1_655     S
V809     O837    10.0   .     S
N810     V809    9.999   1_455     S
V811     N813    9.999   .     S
V811     O1481    10.0   .     S
V812     N813    9.999   1_565     S
V812     O824    10.0   .     S
N813     V812    9.999   1_545     S
V814     N816    9.999   .     S
V814     O1091    10.0   .     S
V815     N816    9.999   .     S
V815     O829    10.0   .     S
Be817     O828    10.0   .     S
Be817     O821    10.0   .     S
Be817     Na818    10.0   .     S
Na818     H898    10.0   1_565     S
Er819     O820    9.999   1_565     S
Er819     O821    9.999   .     S
Er819     F887    10.0   .     S
O820     Er819    9.999   1_545     S
O820     Be823    10.0   .     S
Na822     H898    10.0   .     S
Na822     Be823    10.0   .     S
Be823     O825    10.0   .     S
O824     Er826    9.999   .     S
O824     Be830    10.0   .     S
O825     Er826    9.999   1_545     S
Er826     O825    9.999   1_565     S
Er826     F877    10.0   .     S
Er827     O828    9.999   .     S
Er827     O829    9.999   .     S
Er827     F883    10.0   .     S
O829     Be830    10.0   .     S
Be830     Na831    10.0   .     S
Na831     H898    10.0   1_565     S
Be832     O837    10.0   .     S
Be832     O834    10.0   .     S
Be832     Na833    10.0   .     S
Na833     H899    10.0   1_655     S
O834     Er836    9.999   .     S
O835     Er836    9.999   .     S
O835     Be840    10.0   .     S
Er836     F884    10.0   .     S
O837     Er839    9.999   .     S
O838     Er839    9.999   1_455     S
O838     Be845    10.0   .     S
Er839     O838    9.999   1_655     S
Er839     F878    10.0   .     S
Be840     O842    10.0   .     S
Be840     Na841    10.0   .     S
Na841     H899    10.0   1_655     S
O842     Er843    9.999   .     S
Er843     O844    9.999   1_655     S
Er843     F893    10.0   .     S
O844     Er843    9.999   1_455     S
O844     Be845    10.0   .     S
Be845     Na846    10.0   .     S
Na846     H899    10.0   .     S
Er847     O849    9.999   .     S
Er847     O848    9.999   .     S
Er847     F890    10.0   .     S
O848     Be860    10.0   .     S
O849     Be851    10.0   .     S
Na850     H900    10.0   .     S
Na850     Be851    10.0   .     S
Be851     O852    10.0   .     S
O852     Er853    9.999   .     S
Er853     O854    9.999   .     S
Er853     F894    10.0   .     S
O854     Be855    10.0   .     S
Be855     O857    10.0   .     S
Be855     Na856    10.0   .     S
Na856     H900    10.0   .     S
O857     Er858    9.999   .     S
O857     V1033    10.0   .     S
Er858     O859    9.999   .     S
Er858     F885    10.0   .     S
O859     Be860    10.0   .     S
Be860     Na861    10.0   .     S
Na861     H900    10.0   .     S
O862     Er864    9.999   1_455     S
O862     Be875    10.0   .     S
O862     V911    10.0   .     S
O863     Er864    9.999   1_545     S
O863     Be866    10.0   .     S
O863     V1235    10.0   .     S
Er864     O862    9.999   1_655     S
Er864     O863    9.999   1_565     S
Er864     F880    10.0   .     S
Na865     H897    10.0   1_655     S
Na865     Be866    10.0   .     S
Be866     O869    10.0   .     S
O867     Er868    9.999   .     S
O867     Be870    10.0   .     S
Er868     O869    9.999   1_565     S
Er868     F889    10.0   .     S
O869     Er868    9.999   1_545     S
O869     V1328    10.0   .     S
Be870     O872    10.0   .     S
Be870     Na871    10.0   .     S
Na871     H897    10.0   1_665     S
O872     Er873    9.999   .     S
O872     V905    10.0   .     S
Er873     O874    9.999   1_655     S
Er873     F892    10.0   .     S
O874     Er873    9.999   1_455     S
O874     Be875    10.0   .     S
O874     V1237    10.0   .     S
Be875     Na876    10.0   .     S
Na876     H897    10.0   1_565     S
F877     Ti879    10.0   .     S
F877     Ce886    10.001   .     S
F878     Ti879    10.0   .     S
F878     Ce881    10.001   .     S
Ti879     F880    10.0   .     S
F880     Ce895    10.001   .     S
Ce881     F884    10.001   .     S
Ce881     F893    10.001   .     S
Ti882     F883    10.0   .     S
Ti882     F884    10.0   .     S
Ti882     F885    10.0   .     S
F883     Ce886    10.001   .     S
F885     Ce896    10.001   .     S
Ce886     F887    10.001   .     S
F887     Ti888    10.0   .     S
Ti888     F889    10.0   .     S
Ti888     F890    10.0   .     S
F889     Ce895    10.001   .     S
F890     Ce896    10.001   .     S
Ti891     F892    10.0   .     S
Ti891     F893    10.0   .     S
Ti891     F894    10.0   .     S
F892     Ce895    10.001   .     S
F894     Ce896    10.001   .     S
H897     Na865    10.0   1_455     S
H897     Na871    10.0   1_445     S
H897     Na876    10.0   1_545     S
H898     Na818    10.0   1_545     S
H898     Na831    10.0   1_545     S
H899     Na833    10.0   1_455     S
H899     Na841    10.0   1_455     S
V901     N903    9.999   .     S
V901     O1360    10.0   .     S
V902     N903    9.999   1_556     S
V902     O993    10.0   .     S
N903     V902    9.999   1_554     S
V904     N906    9.999   .     S
V904     O1270    10.0   .     S
V905     N906    9.999   1_655     S
N906     V905    9.999   1_455     S
V907     N909    9.999   .     S
V907     O1245    10.0   .     S
V908     N909    9.999   1_655     S
V908     O1196    10.0   .     S
N909     V908    9.999   1_455     S
V910     N912    9.999   .     S
V910     O1457    10.0   .     S
V911     N912    9.999   1_565     S
N912     V911    9.999   1_545     S
V913     N915    9.999   .     S
V913     O1265    10.0   .     S
V914     N915    9.999   .     S
V914     O978    10.0   .     S
V916     N918    9.999   .     S
V916     O1461    10.0   .     S
V917     N918    9.999   .     S
V917     O968    10.0   .     S
V919     N921    9.999   .     S
V919     O1488    10.0   .     S
V920     N921    9.999   .     S
V920     O967    10.0   .     S
V922     N924    9.999   .     S
V922     O1264    10.0   .     S
V923     N924    9.999   1_556     S
V923     O982    10.0   .     S
N924     V923    9.999   1_554     S
V925     N927    9.999   .     S
V925     O1048    10.0   .     S
V926     N927    9.999   .     S
V926     O974    10.0   .     S
V928     N930    9.999   .     S
V928     O1382    10.0   .     S
V929     N930    9.999   1_556     S
V929     O944    10.0   .     S
N930     V929    9.999   1_554     S
V931     N933    9.999   .     S
V931     O1383    10.0   .     S
V932     N933    9.999   1_565     S
V932     O962    10.0   .     S
N933     V932    9.999   1_545     S
V934     N936    9.999   .     S
V934     O1096    10.0   .     S
V935     N936    9.999   .     S
V935     O949    10.0   .     S
Na937     H1018    10.0   .     S
Na937     Be938    10.0   .     S
Be938     O945    10.0   .     S
Be938     O941    10.0   .     S
O939     Er940    9.999   .     S
O939     Be942    10.0   .     S
Er940     O941    9.999   1_556     S
Er940     F1009    10.0   .     S
O941     Er940    9.999   1_554     S
Be942     O948    10.0   .     S
Be942     Na943    10.0   .     S
Na943     H1018    10.0   1_556     S
O944     Er946    9.999   .     S
O944     Be950    10.0   .     S
O945     Er946    9.999   1_554     S
Er946     O945    9.999   1_556     S
Er946     F997    10.0   .     S
Er947     O949    9.999   .     S
Er947     O948    9.999   .     S
Er947     F1004    10.0   .     S
O949     Be950    10.0   .     S
Be950     Na951    10.0   .     S
Na951     H1018    10.0   1_556     S
Be952     O954    10.0   .     S
Be952     O959    10.0   .     S
Be952     Na953    10.0   .     S
Na953     H1017    10.0   1_565     S
O954     Er955    9.999   .     S
Er955     O956    9.999   1_565     S
Er955     F1013    10.0   .     S
O956     Er955    9.999   1_545     S
O956     Be958    10.0   .     S
Na957     H1017    10.0   .     S
Na957     Be958    10.0   .     S
Be958     O963    10.0   .     S
O959     Er961    9.999   .     S
O960     Er961    9.999   .     S
O960     Be965    10.0   .     S
Er961     F1003    10.0   .     S
O962     Er964    9.999   .     S
O962     Be965    10.0   .     S
O963     Er964    9.999   1_545     S
Er964     O963    9.999   1_565     S
Er964     F998    10.0   .     S
Be965     Na966    10.0   .     S
Na966     H1017    10.0   1_565     S
O967     Er969    9.999   .     S
O967     Be981    10.0   .     S
O968     Er969    9.999   .     S
O968     Be971    10.0   .     S
Er969     F1014    10.0   .     S
Na970     H1020    10.0   .     S
Na970     Be971    10.0   .     S
Be971     O972    10.0   .     S
O972     Er973    9.999   .     S
Er973     O974    9.999   .     S
Er973     F1005    10.0   .     S
O974     Be975    10.0   .     S
Be975     O979    10.0   .     S
Be975     Na976    10.0   .     S
Na976     H1020    10.0   .     S
Er977     O978    9.999   .     S
Er977     O979    9.999   .     S
Er977     F1010    10.0   .     S
O978     Be981    10.0   .     S
Na980     H1020    10.0   .     S
Na980     Be981    10.0   .     S
O982     Er983    9.999   .     S
O982     Be985    10.0   .     S
Er983     O984    9.999   1_556     S
Er983     F1008    10.0   .     S
O984     Er983    9.999   1_554     S
O984     Be995    10.0   .     S
Be985     O987    10.0   .     S
Be985     Na986    10.0   .     S
Na986     H1019    10.0   1_566     S
O987     Er988    9.999   .     S
O987     V1433    10.0   .     S
Er988     O989    9.999   1_565     S
Er988     F1012    10.0   .     S
O989     Er988    9.999   1_545     S
O989     Be990    10.0   .     S
O989     V1334    10.0   .     S
Be990     O993    10.0   .     S
Be990     Na991    10.0   .     S
Na991     H1019    10.0   1_556     S
O992     Er994    9.999   1_554     S
O992     Be995    10.0   .     S
O992     V1025    10.0   .     S
O993     Er994    9.999   1_545     S
Er994     O992    9.999   1_556     S
Er994     O993    9.999   1_565     S
Er994     F999    10.0   .     S
Be995     Na996    10.0   .     S
Na996     H1019    10.0   1_565     S
F997     Ti1000    10.0   .     S
F997     Ce1001    10.001   .     S
F998     Ti1000    10.0   .     S
F998     Ce1006    10.001   .     S
F999     Ti1000    10.0   .     S
F999     Ce1015    10.001   .     S
Ce1001     F1004    10.001   .     S
Ce1001     F1009    10.001   .     S
Ti1002     F1003    10.0   .     S
Ti1002     F1004    10.0   .     S
Ti1002     F1005    10.0   .     S
F1003     Ce1006    10.001   .     S
F1005     Ce1016    10.001   .     S
Ce1006     F1013    10.001   .     S
Ti1007     F1008    10.0   .     S
Ti1007     F1009    10.0   .     S
Ti1007     F1010    10.0   .     S
F1008     Ce1015    10.001   .     S
F1010     Ce1016    10.001   .     S
Ti1011     F1012    10.0   .     S
Ti1011     F1013    10.0   .     S
Ti1011     F1014    10.0   .     S
F1012     Ce1015    10.001   .     S
F1014     Ce1016    10.001   .     S
H1017     Na953    10.0   1_545     S
H1017     Na966    10.0   1_545     S
H1018     Na943    10.0   1_554     S
H1018     Na951    10.0   1_554     S
H1019     Na986    10.0   1_544     S
H1019     Na991    10.0   1_554     S
H1019     Na996    10.0   1_545     S
V1021     N1023    9.999   .     S
V1021     O1285    10.0   .     S
V1022     N1023    9.999   1_556     S
V1022     O1195    10.0   .     S
N1023     V1022    9.999   1_554     S
V1024     N1026    9.999   .     S
V1024     O1340    10.0   .     S
V1025     N1026    9.999   1_565     S
N1026     V1025    9.999   1_545     S
V1027     N1029    9.999   .     S
V1027     O1492    10.0   .     S
V1028     N1029    9.999   .     S
V1028     O1182    10.0   .     S
V1030     N1032    9.999   .     S
V1030     O1190    10.0   .     S
V1031     N1032    9.999   .     S
V1031     O1049    10.0   .     S
V1033     N1035    9.999   .     S
V1034     N1035    9.999   .     S
V1034     O1079    10.0   .     S
V1036     N1038    9.999   .     S
V1036     O1168    10.0   .     S
V1037     N1038    9.999   .     S
V1037     O1050    10.0   .     S
O1039     Er1041    9.999   .     S
O1039     Be1044    10.0   .     S
O1039     V1532    10.0   .     S
O1040     Er1041    9.999   .     S
O1040     Be1042    10.0   .     S
O1040     V1535    10.0   .     S
Er1041     F1101    10.0   .     S
Be1042     O1048    10.0   .     S
Be1042     Na1043    10.0   .     S
Na1043     H1122    10.0   .     S
Be1044     O1049    10.0   .     S
Be1044     Na1045    10.0   .     S
Na1045     H1122    10.0   .     S
O1046     Er1047    9.999   .     S
O1046     Be1052    10.0   .     S
Er1047     O1048    9.999   .     S
Er1047     F1103    10.0   .     S
O1049     Er1051    9.999   .     S
O1050     Er1051    9.999   .     S
O1050     Be1052    10.0   .     S
Er1051     F1113    10.0   .     S
Be1052     Na1053    10.0   .     S
Na1053     H1122    10.0   .     S
Er1054     O1056    9.999   .     S
Er1054     O1055    9.999   .     S
Er1054     F1102    10.0   .     S
O1055     Be1059    10.0   .     S
O1055     V1541    10.0   .     S
O1056     Be1057    10.0   .     S
O1056     V1537    10.0   .     S
Be1057     O1061    10.0   .     S
Be1057     Na1058    10.0   .     S
Na1058     H1119    10.0   .     S
Be1059     O1066    10.0   .     S
Be1059     Na1060    10.0   .     S
Na1060     H1119    10.0   .     S
O1061     Er1063    9.999   .     S
O1062     Er1063    9.999   .     S
O1062     Be1068    10.0   .     S
Er1063     F1105    10.0   .     S
Er1064     O1066    9.999   .     S
Er1064     O1065    9.999   .     S
Er1064     F1107    10.0   .     S
O1065     Be1068    10.0   .     S
Na1067     H1119    10.0   .     S
Na1067     Be1068    10.0   .     S
O1069     Er1071    9.999   .     S
O1069     Be1072    10.0   .     S
O1069     V1544    10.0   .     S
O1070     Er1071    9.999   .     S
O1070     Be1074    10.0   .     S
O1070     V1547    10.0   .     S
Er1071     F1100    10.0   .     S
Be1072     O1079    10.0   .     S
Be1072     Na1073    10.0   .     S
Na1073     H1121    10.0   .     S
Be1074     O1078    10.0   .     S
Be1074     Na1075    10.0   .     S
Na1075     H1121    10.0   .     S
Er1076     O1078    9.999   .     S
Er1076     O1077    9.999   .     S
Er1076     F1111    10.0   .     S
O1077     Be1083    10.0   .     S
O1077     V1127    10.0   .     S
O1078     V1135    10.0   .     S
O1079     Er1080    9.999   .     S
Er1080     O1081    9.999   .     S
Er1080     F1108    10.0   .     S
O1081     Be1083    10.0   .     S
Na1082     H1121    10.0   .     S
Na1082     Be1083    10.0   .     S
O1084     Er1085    9.999   .     S
O1084     Be1097    10.0   .     S
O1084     V1144    10.0   .     S
Er1085     O1086    9.999   .     S
Er1085     F1114    10.0   .     S
O1086     Be1087    10.0   .     S
O1086     V1147    10.0   .     S
Be1087     O1090    10.0   .     S
Be1087     Na1088    10.0   .     S
Na1088     H1120    10.0   .     S
Er1089     O1091    9.999   .     S
Er1089     O1090    9.999   .     S
Er1089     F1110    10.0   .     S
O1091     Be1092    10.0   .     S
Be1092     O1094    10.0   .     S
Be1092     Na1093    10.0   .     S
Na1093     H1120    10.0   .     S
O1094     Er1095    9.999   .     S
Er1095     O1096    9.999   .     S
Er1095     F1106    10.0   .     S
O1096     Be1097    10.0   .     S
Be1097     Na1098    10.0   .     S
Na1098     H1120    10.0   .     S
Ti1099     F1102    10.0   .     S
Ti1099     F1101    10.0   .     S
Ti1099     F1100    10.0   .     S
F1100     Ce1116    10.001   .     S
F1101     Ce1118    10.001   .     S
F1102     Ce1117    10.001   .     S
F1103     Ti1104    10.0   .     S
F1103     Ce1118    10.001   .     S
Ti1104     F1106    10.0   .     S
Ti1104     F1105    10.0   .     S
F1105     Ce1117    10.001   .     S
F1106     Ce1115    10.001   .     S
F1107     Ti1109    10.0   .     S
F1107     Ce1117    10.001   .     S
F1108     Ti1109    10.0   .     S
F1108     Ce1116    10.001   .     S
Ti1109     F1110    10.0   .     S
F1110     Ce1115    10.001   .     S
F1111     Ti1112    10.0   .     S
F1111     Ce1116    10.001   .     S
Ti1112     F1114    10.0   .     S
Ti1112     F1113    10.0   .     S
F1113     Ce1118    10.001   .     S
F1114     Ce1115    10.001   .     S
V1123     N1125    9.999   .     S
V1123     O1389    10.0   .     S
V1124     N1125    9.999   .     S
V1124     O1185    10.0   .     S
V1126     N1128    9.999   .     S
V1126     O1160    10.0   .     S
V1127     N1128    9.999   .     S
V1129     N1131    9.999   .     S
V1129     O1491    10.0   .     S
V1130     N1131    9.999   1_655     S
V1130     O1200    10.0   .     S
N1131     V1130    9.999   1_455     S
V1132     N1134    9.999   .     S
V1132     O1355    10.0   .     S
V1133     N1134    9.999   .     S
V1133     O1187    10.0   .     S
V1135     N1137    9.999   .     S
V1136     N1137    9.999   .     S
V1136     O1192    10.0   .     S
V1138     N1140    9.999   .     S
V1138     O1260    10.0   .     S
V1139     N1140    9.999   1_556     S
V1139     O1170    10.0   .     S
N1140     V1139    9.999   1_554     S
V1141     N1143    9.999   .     S
V1141     O1259    10.0   .     S
V1142     N1143    9.999   1_655     S
V1142     O1157    10.0   .     S
N1143     V1142    9.999   1_455     S
V1144     N1146    9.999   .     S
V1145     N1146    9.999   .     S
V1145     O1167    10.0   .     S
V1147     N1149    9.999   .     S
V1148     N1149    9.999   .     S
V1148     O1162    10.0   .     S
Be1150     O1160    10.0   .     S
Be1150     O1152    10.0   .     S
Be1150     Na1151    10.0   .     S
Na1151     H1232    10.0   1_655     S
O1152     Er1154    9.999   .     S
O1153     Er1154    9.999   1_455     S
O1153     Be1155    10.0   .     S
Er1154     O1153    9.999   1_655     S
Er1154     F1216    10.0   .     S
Be1155     O1158    10.0   .     S
Be1155     Na1156    10.0   .     S
Na1156     H1232    10.0   .     S
O1157     Er1159    9.999   .     S
O1157     Be1164    10.0   .     S
O1158     Er1159    9.999   1_455     S
Er1159     O1158    9.999   1_655     S
Er1159     F1221    10.0   .     S
O1160     Er1161    9.999   .     S
Er1161     O1162    9.999   .     S
Er1161     F1212    10.0   .     S
O1162     Be1164    10.0   .     S
Na1163     H1232    10.0   1_655     S
Na1163     Be1164    10.0   .     S
Be1165     O1167    10.0   .     S
Be1165     O1170    10.0   .     S
Be1165     Na1166    10.0   .     S
Na1166     H1233    10.0   1_556     S
O1167     Er1169    9.999   .     S
O1168     Er1169    9.999   .     S
O1168     Be1173    10.0   .     S
Er1169     F1211    10.0   .     S
O1170     Er1172    9.999   .     S
O1171     Er1172    9.999   1_554     S
O1171     Be1179    10.0   .     S
Er1172     O1171    9.999   1_556     S
Er1172     F1222    10.0   .     S
Be1173     O1177    10.0   .     S
Be1173     Na1174    10.0   .     S
Na1174     H1233    10.0   1_556     S
Er1175     O1176    9.999   1_556     S
Er1175     O1177    9.999   .     S
Er1175     F1227    10.0   .     S
O1176     Er1175    9.999   1_554     S
O1176     Be1179    10.0   .     S
Na1178     H1233    10.0   .     S
Na1178     Be1179    10.0   .     S
Er1180     O1182    9.999   .     S
Er1180     O1181    9.999   .     S
Er1180     F1217    10.0   .     S
O1181     Be1193    10.0   .     S
O1182     Be1184    10.0   .     S
Na1183     H1230    10.0   .     S
Na1183     Be1184    10.0   .     S
Be1184     O1185    10.0   .     S
O1185     Er1186    9.999   .     S
Er1186     O1187    9.999   .     S
Er1186     F1228    10.0   .     S
O1187     Be1188    10.0   .     S
Be1188     O1190    10.0   .     S
Be1188     Na1189    10.0   .     S
Na1189     H1230    10.0   .     S
O1190     Er1191    9.999   .     S
Er1191     O1192    9.999   .     S
Er1191     F1213    10.0   .     S
O1192     Be1193    10.0   .     S
Be1193     Na1194    10.0   .     S
Na1194     H1230    10.0   .     S
O1195     Er1197    9.999   1_455     S
O1195     Be1198    10.0   .     S
O1196     Er1197    9.999   1_554     S
O1196     Be1203    10.0   .     S
Er1197     O1195    9.999   1_655     S
Er1197     O1196    9.999   1_556     S
Er1197     F1223    10.0   .     S
Be1198     O1201    10.0   .     S
Be1198     Na1199    10.0   .     S
Na1199     H1231    10.0   1_556     S
O1200     Er1202    9.999   .     S
O1200     Be1209    10.0   .     S
O1201     Er1202    9.999   1_455     S
O1201     V1427    10.0   .     S
Er1202     O1201    9.999   1_655     S
Er1202     F1218    10.0   .     S
Be1203     O1205    10.0   .     S
Be1203     Na1204    10.0   .     S
Na1204     H1231    10.0   1_655     S
O1205     Er1207    9.999   1_554     S
O1205     V1331    10.0   .     S
O1206     Er1207    9.999   .     S
O1206     Be1209    10.0   .     S
Er1207     O1205    9.999   1_556     S
Er1207     F1226    10.0   .     S
Na1208     H1231    10.0   1_656     S
Na1208     Be1209    10.0   .     S
Ti1210     F1211    10.0   .     S
Ti1210     F1212    10.0   .     S
Ti1210     F1213    10.0   .     S
F1211     Ce1214    10.001   .     S
F1212     Ce1219    10.001   .     S
F1213     Ce1229    10.001   .     S
Ce1214     F1222    10.001   .     S
Ce1214     F1227    10.001   .     S
Ti1215     F1218    10.0   .     S
Ti1215     F1216    10.0   .     S
Ti1215     F1217    10.0   .     S
F1216     Ce1219    10.001   .     S
F1217     Ce1229    10.001   .     S
F1218     Ce1224    10.001   .     S
Ce1219     F1221    10.001   .     S
Ti1220     F1223    10.0   .     S
Ti1220     F1221    10.0   .     S
Ti1220     F1222    10.0   .     S
F1223     Ce1224    10.001   .     S
Ce1224     F1226    10.001   .     S
Ti1225     F1226    10.0   .     S
Ti1225     F1227    10.0   .     S
Ti1225     F1228    10.0   .     S
F1228     Ce1229    10.001   .     S
H1231     Na1199    10.0   1_554     S
H1231     Na1204    10.0   1_455     S
H1231     Na1208    10.0   1_454     S
H1232     Na1151    10.0   1_455     S
H1232     Na1163    10.0   1_455     S
H1233     Na1166    10.0   1_554     S
H1233     Na1174    10.0   1_554     S
V1234     N1236    9.999   .     S
V1234     O1438    10.0   .     S
V1235     N1236    9.999   1_655     S
N1236     V1235    9.999   1_455     S
V1237     N1239    9.999   .     S
V1238     N1239    9.999   .     S
V1238     O1300    10.0   .     S
V1240     N1242    9.999   .     S
V1240     O1246    10.0   .     S
V1241     N1242    9.999   .     S
V1241     O1596    10.0   .     S
Er1243     O1244    9.999   1_455     S
Er1243     O1245    9.999   .     S
Er1243     F1308    10.0   .     S
O1244     Er1243    9.999   1_655     S
O1244     Be1251    10.0   .     S
O1245     Be1249    10.0   .     S
O1246     Er1248    9.999   .     S
O1246     Be1249    10.0   .     S
O1247     Er1248    9.999   .     S
O1247     Be1257    10.0   .     S
Er1248     F1305    10.0   .     S
Be1249     Na1250    10.0   .     S
Na1250     H1325    10.0   1_455     S
Be1251     O1255    10.0   .     S
Be1251     Na1252    10.0   .     S
Na1252     H1325    10.0   .     S
Er1253     O1255    9.999   1_455     S
Er1253     O1254    9.999   .     S
Er1253     F1317    10.0   .     S
O1254     Be1257    10.0   .     S
O1255     Er1253    9.999   1_655     S
Na1256     H1325    10.0   1_455     S
Na1256     Be1257    10.0   .     S
Er1258     O1260    9.999   1_455     S
Er1258     O1259    9.999   1_554     S
Er1258     F1310    10.0   .     S
O1259     Er1258    9.999   1_556     S
O1259     Be1261    10.0   .     S
O1260     Er1258    9.999   1_655     S
O1260     Be1271    10.0   .     S
Be1261     O1265    10.0   .     S
Be1261     Na1262    10.0   .     S
Na1262     H1323    10.0   1_455     S
Er1263     O1265    9.999   1_554     S
Er1263     O1264    9.999   .     S
Er1263     F1314    10.0   .     S
O1264     Be1266    10.0   .     S
O1265     Er1263    9.999   1_556     S
Be1266     O1270    10.0   .     S
Be1266     Na1267    10.0   .     S
Na1267     H1323    10.0   1_454     S
Er1268     O1269    9.999   1_455     S
Er1268     O1270    9.999   .     S
Er1268     F1319    10.0   .     S
O1269     Er1268    9.999   1_655     S
O1269     Be1271    10.0   .     S
Be1271     Na1272    10.0   .     S
Na1272     H1323    10.0   1_554     S
Be1273     O1280    10.0   .     S
Be1273     O1284    10.0   .     S
Be1273     Na1274    10.0   .     S
Na1274     H1326    10.0   .     S
Er1275     O1276    9.999   .     S
Er1275     O1277    9.999   .     S
Er1275     F1304    10.0   .     S
O1276     Be1281    10.0   .     S
O1277     Be1286    10.0   .     S
Er1278     O1280    9.999   1_554     S
Er1278     O1279    9.999   .     S
Er1278     F1311    10.0   .     S
O1279     Be1281    10.0   .     S
O1280     Er1278    9.999   1_556     S
Be1281     Na1282    10.0   .     S
Na1282     H1326    10.0   1_554     S
Er1283     O1284    9.999   1_554     S
Er1283     O1285    9.999   .     S
Er1283     F1309    10.0   .     S
O1284     Er1283    9.999   1_556     S
O1285     Be1286    10.0   .     S
Be1286     Na1287    10.0   .     S
Na1287     H1326    10.0   1_554     S
Er1288     O1290    9.999   .     S
Er1288     O1289    9.999   .     S
Er1288     F1306    10.0   .     S
O1289     Be1293    10.0   .     S
O1289     V1520    10.0   .     S
O1290     Be1291    10.0   .     S
O1290     V1528    10.0   .     S
Be1291     O1299    10.0   .     S
Be1291     Na1292    10.0   .     S
Na1292     H1324    10.0   .     S
Be1293     O1296    10.0   .     S
Be1293     Na1294    10.0   .     S
Na1294     H1324    10.0   .     S
Er1295     O1296    9.999   .     S
Er1295     O1297    9.999   .     S
Er1295     F1313    10.0   .     S
O1297     Be1302    10.0   .     S
Er1298     O1299    9.999   .     S
Er1298     O1300    9.999   .     S
Er1298     F1318    10.0   .     S
O1300     Be1302    10.0   .     S
Na1301     H1324    10.0   .     S
Na1301     Be1302    10.0   .     S
Ti1303     F1305    10.0   .     S
Ti1303     F1306    10.0   .     S
Ti1303     F1304    10.0   .     S
F1304     Ce1321    10.001   .     S
F1305     Ce1320    10.001   .     S
F1306     Ce1315    10.001   .     S
Ti1307     F1310    10.0   .     S
Ti1307     F1308    10.0   .     S
Ti1307     F1309    10.0   .     S
F1308     Ce1320    10.001   .     S
F1309     Ce1321    10.001   .     S
F1310     Ce1322    10.001   .     S
F1311     Ti1312    10.0   .     S
F1311     Ce1321    10.001   .     S
Ti1312     F1314    10.0   .     S
Ti1312     F1313    10.0   .     S
F1313     Ce1315    10.001   .     S
F1314     Ce1322    10.001   .     S
Ce1315     F1318    10.001   .     S
Ti1316     F1319    10.0   .     S
Ti1316     F1318    10.0   .     S
Ti1316     F1317    10.0   .     S
F1317     Ce1320    10.001   .     S
F1319     Ce1322    10.001   .     S
H1323     Na1262    10.0   1_655     S
H1323     Na1267    10.0   1_656     S
H1323     Na1272    10.0   1_556     S
H1325     Na1250    10.0   1_655     S
H1325     Na1256    10.0   1_655     S
H1326     Na1282    10.0   1_556     S
H1326     Na1287    10.0   1_556     S
V1327     N1329    9.999   .     S
V1327     O1375    10.0   .     S
V1328     N1329    9.999   .     S
V1330     N1332    9.999   .     S
V1330     O1378    10.0   .     S
V1331     N1332    9.999   .     S
V1333     N1335    9.999   .     S
V1333     O1477    10.0   .     S
V1334     N1335    9.999   .     S
Na1336     H1419    10.0   1_545     S
Na1336     Be1337    10.0   .     S
Be1337     O1340    10.0   .     S
Be1337     O1343    10.0   .     S
Er1338     O1339    9.999   1_545     S
Er1338     O1340    9.999   .     S
Er1338     F1402    10.0   .     S
O1339     Er1338    9.999   1_565     S
O1339     Be1344    10.0   .     S
O1341     Er1342    9.999   .     S
O1341     Be1350    10.0   .     S
Er1342     O1343    9.999   .     S
Er1342     F1397    10.0   .     S
Be1344     O1348    10.0   .     S
Be1344     Na1345    10.0   .     S
Na1345     H1419    10.0   .     S
Er1346     O1348    9.999   1_545     S
Er1346     O1347    9.999   .     S
Er1346     F1412    10.0   .     S
O1347     Be1350    10.0   .     S
O1348     Er1346    9.999   1_565     S
Na1349     H1419    10.0   1_545     S
Na1349     Be1350    10.0   .     S
Be1351     O1359    10.0   .     S
Be1351     O1355    10.0   .     S
Be1351     Na1352    10.0   .     S
Na1352     H1417    10.0   .     S
Er1353     O1355    9.999   1_554     S
Er1353     O1354    9.999   .     S
Er1353     F1407    10.0   .     S
O1354     Be1356    10.0   .     S
O1355     Er1353    9.999   1_556     S
Be1356     O1361    10.0   .     S
Be1356     Na1357    10.0   .     S
Na1357     H1417    10.0   1_554     S
Er1358     O1359    9.999   1_554     S
Er1358     O1360    9.999   .     S
Er1358     F1400    10.0   .     S
O1359     Er1358    9.999   1_556     S
O1360     Be1364    10.0   .     S
O1361     Er1362    9.999   .     S
Er1362     O1363    9.999   .     S
Er1362     F1398    10.0   .     S
O1363     Be1364    10.0   .     S
O1363     V1421    10.0   .     S
Be1364     Na1365    10.0   .     S
Na1365     H1417    10.0   1_554     S
O1366     Er1367    9.999   .     S
O1366     Be1371    10.0   .     S
Er1367     O1368    9.999   .     S
Er1367     F1399    10.0   .     S
O1368     Be1369    10.0   .     S
O1368     V1526    10.0   .     S
Be1369     O1373    10.0   .     S
Be1369     Na1370    10.0   .     S
Na1370     H1418    10.0   .     S
Be1371     O1377    10.0   .     S
Be1371     Na1372    10.0   .     S
Na1372     H1418    10.0   .     S
O1373     Er1374    9.999   .     S
Er1374     O1375    9.999   .     S
Er1374     F1414    10.0   .     S
O1375     Be1380    10.0   .     S
Er1376     O1377    9.999   .     S
Er1376     O1378    9.999   .     S
Er1376     F1408    10.0   .     S
O1378     Be1380    10.0   .     S
Na1379     H1418    10.0   .     S
Na1379     Be1380    10.0   .     S
Er1381     O1382    9.999   1_545     S
Er1381     O1383    9.999   1_554     S
Er1381     F1403    10.0   .     S
O1382     Er1381    9.999   1_565     S
O1382     Be1384    10.0   .     S
O1383     Er1381    9.999   1_556     S
O1383     Be1386    10.0   .     S
Be1384     O1393    10.0   .     S
Be1384     Na1385    10.0   .     S
Na1385     H1416    10.0   1_554     S
Be1386     O1389    10.0   .     S
Be1386     Na1387    10.0   .     S
Na1387     H1416    10.0   1_545     S
Er1388     O1389    9.999   1_554     S
Er1388     O1390    9.999   .     S
Er1388     F1409    10.0   .     S
O1389     Er1388    9.999   1_556     S
O1390     Be1394    10.0   .     S
Er1391     O1393    9.999   1_545     S
Er1391     O1392    9.999   .     S
Er1391     F1413    10.0   .     S
O1392     Be1394    10.0   .     S
O1393     Er1391    9.999   1_565     S
Be1394     Na1395    10.0   .     S
Na1395     H1416    10.0   1_544     S
Ti1396     F1399    10.0   .     S
Ti1396     F1398    10.0   .     S
Ti1396     F1397    10.0   .     S
F1397     Ce1415    10.001   .     S
F1398     Ce1405    10.001   .     S
F1399     Ce1410    10.001   .     S
F1400     Ti1401    10.0   .     S
F1400     Ce1405    10.001   .     S
Ti1401     F1402    10.0   .     S
Ti1401     F1403    10.0   .     S
F1402     Ce1415    10.001   .     S
F1403     Ce1404    10.001   .     S
Ce1404     F1413    10.001   .     S
Ce1404     F1409    10.001   .     S
Ce1405     F1407    10.001   .     S
Ti1406     F1409    10.0   .     S
Ti1406     F1407    10.0   .     S
Ti1406     F1408    10.0   .     S
F1408     Ce1410    10.001   .     S
Ce1410     F1414    10.001   .     S
Ti1411     F1413    10.0   .     S
Ti1411     F1414    10.0   .     S
Ti1411     F1412    10.0   .     S
F1412     Ce1415    10.001   .     S
H1416     Na1385    10.0   1_556     S
H1416     Na1387    10.0   1_565     S
H1416     Na1395    10.0   1_566     S
H1417     Na1357    10.0   1_556     S
H1417     Na1365    10.0   1_556     S
H1419     Na1336    10.0   1_565     S
H1419     Na1349    10.0   1_565     S
V1420     N1422    9.999   .     S
V1420     O1604    10.0   .     S
V1421     N1422    9.999   .     S
V1423     N1425    9.999   .     S
V1423     O1601    10.0   .     S
V1424     N1425    9.999   .     S
V1424     O1442    10.0   .     S
V1426     N1428    9.999   .     S
V1426     O1474    10.0   .     S
V1427     N1428    9.999   .     S
V1429     N1431    9.999   .     S
V1429     O1450    10.0   .     S
V1430     N1431    9.999   .     S
V1430     O1599    10.0   .     S
V1432     N1434    9.999   .     S
V1432     O1489    10.0   .     S
V1433     N1434    9.999   1_565     S
N1434     V1433    9.999   1_545     S
Na1435     H1517    10.0   1_455     S
Na1435     Be1436    10.0   .     S
Be1436     O1438    10.0   .     S
Be1436     O1442    10.0   .     S
Er1437     O1439    9.999   1_455     S
Er1437     O1438    9.999   .     S
Er1437     F1510    10.0   .     S
O1439     Er1437    9.999   1_655     S
O1439     Be1443    10.0   .     S
O1440     Er1441    9.999   .     S
O1440     Be1448    10.0   .     S
Er1441     O1442    9.999   .     S
Er1441     F1498    10.0   .     S
Be1443     O1447    10.0   .     S
Be1443     Na1444    10.0   .     S
Na1444     H1517    10.0   .     S
Er1445     O1447    9.999   1_455     S
Er1445     O1446    9.999   .     S
Er1445     F1503    10.0   .     S
O1446     Be1448    10.0   .     S
O1447     Er1445    9.999   1_655     S
Be1448     Na1449    10.0   .     S
Na1449     H1517    10.0   1_455     S
O1450     Er1451    9.999   .     S
O1450     Be1454    10.0   .     S
Er1451     O1452    9.999   .     S
Er1451     F1496    10.0   .     S
O1452     Be1463    10.0   .     S
Na1453     H1518    10.0   1_545     S
Na1453     Be1454    10.0   .     S
Be1454     O1457    10.0   .     S
Er1455     O1456    9.999   1_545     S
Er1455     O1457    9.999   .     S
Er1455     F1511    10.0   .     S
O1456     Er1455    9.999   1_565     S
O1456     Be1458    10.0   .     S
Be1458     O1461    10.0   .     S
Be1458     Na1459    10.0   .     S
Na1459     H1518    10.0   .     S
Er1460     O1461    9.999   1_545     S
Er1460     O1462    9.999   .     S
Er1460     F1505    10.0   .     S
O1461     Er1460    9.999   1_565     S
O1462     Be1463    10.0   .     S
Be1463     Na1464    10.0   .     S
Na1464     H1518    10.0   1_545     S
O1465     Er1467    9.999   .     S
O1465     Be1470    10.0   .     S
O1465     V1523    10.0   .     S
O1466     Er1467    9.999   .     S
O1466     Be1468    10.0   .     S
Er1467     F1499    10.0   .     S
Be1468     O1476    10.0   .     S
Be1468     Na1469    10.0   .     S
Na1469     H1516    10.0   .     S
Be1470     O1473    10.0   .     S
Be1470     Na1471    10.0   .     S
Na1471     H1516    10.0   .     S
Er1472     O1473    9.999   .     S
Er1472     O1474    9.999   .     S
Er1472     F1500    10.0   .     S
O1474     Be1479    10.0   .     S
Er1475     O1476    9.999   .     S
Er1475     O1477    9.999   .     S
Er1475     F1506    10.0   .     S
O1477     Be1479    10.0   .     S
Na1478     H1516    10.0   .     S
Na1478     Be1479    10.0   .     S
Er1480     O1481    9.999   1_455     S
Er1480     O1482    9.999   1_545     S
Er1480     F1512    10.0   .     S
O1481     Er1480    9.999   1_655     S
O1481     Be1483    10.0   .     S
O1482     Er1480    9.999   1_565     S
O1482     Be1485    10.0   .     S
Be1483     O1492    10.0   .     S
Be1483     Na1484    10.0   .     S
Na1484     H1515    10.0   1_545     S
Be1485     O1488    10.0   .     S
Be1485     Na1486    10.0   .     S
Na1486     H1515    10.0   1_455     S
Er1487     O1488    9.999   1_545     S
Er1487     O1489    9.999   .     S
Er1487     F1507    10.0   .     S
O1488     Er1487    9.999   1_565     S
O1489     Be1493    10.0   .     S
Er1490     O1492    9.999   1_455     S
Er1490     O1491    9.999   .     S
Er1490     F1502    10.0   .     S
O1491     Be1493    10.0   .     S
O1492     Er1490    9.999   1_655     S
Be1493     Na1494    10.0   .     S
Na1494     H1515    10.0   1_445     S
Ce1495     F1502    10.001   .     S
Ce1495     F1507    10.001   .     S
Ce1495     F1512    10.001   .     S
F1496     Ti1497    10.0   .     S
F1496     Ce1513    10.001   .     S
Ti1497     F1499    10.0   .     S
Ti1497     F1498    10.0   .     S
F1498     Ce1514    10.001   .     S
F1499     Ce1508    10.001   .     S
F1500     Ti1501    10.0   .     S
F1500     Ce1508    10.001   .     S
Ti1501     F1502    10.0   .     S
Ti1501     F1503    10.0   .     S
F1503     Ce1514    10.001   .     S
Ti1504     F1507    10.0   .     S
Ti1504     F1506    10.0   .     S
Ti1504     F1505    10.0   .     S
F1505     Ce1513    10.001   .     S
F1506     Ce1508    10.001   .     S
Ti1509     F1512    10.0   .     S
Ti1509     F1511    10.0   .     S
Ti1509     F1510    10.0   .     S
F1510     Ce1514    10.001   .     S
F1511     Ce1513    10.001   .     S
H1515     Na1484    10.0   1_565     S
H1515     Na1486    10.0   1_655     S
H1515     Na1494    10.0   1_665     S
H1517     Na1435    10.0   1_655     S
H1517     Na1449    10.0   1_655     S
H1518     Na1453    10.0   1_565     S
H1518     Na1464    10.0   1_565     S
V1519     N1521    9.999   .     S
V1519     O1555    10.0   .     S
V1520     N1521    9.999   .     S
V1522     N1524    9.999   .     S
V1522     O1570    10.0   .     S
V1523     N1524    9.999   .     S
V1525     N1527    9.999   .     S
V1525     O1584    10.0   .     S
V1526     N1527    9.999   .     S
V1528     N1530    9.999   .     S
V1529     N1530    9.999   .     S
V1529     O1576    10.0   .     S
V1531     N1533    9.999   .     S
V1531     O1581    10.0   .     S
V1532     N1533    9.999   .     S
V1534     N1536    9.999   .     S
V1534     O1566    10.0   .     S
V1535     N1536    9.999   .     S
V1537     N1539    9.999   .     S
V1538     N1539    9.999   .     S
V1538     O1565    10.0   .     S
V1540     N1542    9.999   .     S
V1540     O1550    10.0   .     S
V1541     N1542    9.999   .     S
V1543     N1545    9.999   .     S
V1543     O1551    10.0   .     S
V1544     N1545    9.999   .     S
V1546     N1548    9.999   .     S
V1546     O1580    10.0   .     S
V1547     N1548    9.999   .     S
Er1549     O1550    9.999   .     S
Er1549     O1551    9.999   .     S
Er1549     F1612    10.0   .     S
O1550     Be1553    10.0   .     S
O1551     Be1563    10.0   .     S
Na1552     H1631    10.0   .     S
Na1552     Be1553    10.0   .     S
Be1553     O1555    10.0   .     S
O1554     Er1556    9.999   .     S
O1554     Be1558    10.0   .     S
O1555     Er1556    9.999   .     S
Er1556     F1615    10.0   .     S
Na1557     H1631    10.0   .     S
Na1557     Be1558    10.0   .     S
Be1558     O1560    10.0   .     S
Er1559     O1560    9.999   .     S
Er1559     O1561    9.999   .     S
Er1559     F1618    10.0   .     S
O1561     Be1563    10.0   .     S
Na1562     H1631    10.0   .     S
Na1562     Be1563    10.0   .     S
Er1564     O1565    9.999   .     S
Er1564     O1566    9.999   .     S
Er1564     F1611    10.0   .     S
O1565     Be1578    10.0   .     S
O1566     Be1568    10.0   .     S
Na1567     H1632    10.0   .     S
Na1567     Be1568    10.0   .     S
Be1568     O1570    10.0   .     S
O1569     Er1571    9.999   .     S
O1569     Be1573    10.0   .     S
O1570     Er1571    9.999   .     S
Er1571     F1622    10.0   .     S
Na1572     H1632    10.0   .     S
Na1572     Be1573    10.0   .     S
Be1573     O1575    10.0   .     S
Er1574     O1575    9.999   .     S
Er1574     O1576    9.999   .     S
Er1574     F1613    10.0   .     S
O1576     Be1578    10.0   .     S
Na1577     H1632    10.0   .     S
Na1577     Be1578    10.0   .     S
Er1579     O1580    9.999   .     S
Er1579     O1581    9.999   .     S
Er1579     F1610    10.0   .     S
O1580     Be1586    10.0   .     S
O1581     Be1588    10.0   .     S
O1582     Er1583    9.999   .     S
O1582     Be1593    10.0   .     S
Er1583     O1584    9.999   .     S
Er1583     F1620    10.0   .     S
O1584     Be1586    10.0   .     S
Na1585     H1629    10.0   .     S
Na1585     Be1586    10.0   .     S
Na1587     H1629    10.0   .     S
Na1587     Be1588    10.0   .     S
Be1588     O1591    10.0   .     S
Er1589     O1590    9.999   .     S
Er1589     O1591    9.999   .     S
Er1589     F1624    10.0   .     S
O1590     Be1593    10.0   .     S
Na1592     H1629    10.0   .     S
Na1592     Be1593    10.0   .     S
Na1594     H1630    10.0   .     S
Na1594     Be1595    10.0   .     S
Be1595     O1604    10.0   .     S
Be1595     O1597    10.0   .     S
O1596     Er1598    9.999   .     S
O1596     Be1603    10.0   .     S
O1597     Er1598    9.999   .     S
Er1598     F1616    10.0   .     S
O1599     Er1600    9.999   .     S
O1599     Be1608    10.0   .     S
Er1600     O1601    9.999   .     S
Er1600     F1625    10.0   .     S
O1601     Be1603    10.0   .     S
Na1602     H1630    10.0   .     S
Na1602     Be1603    10.0   .     S
O1604     Er1605    9.999   .     S
Er1605     O1606    9.999   .     S
Er1605     F1621    10.0   .     S
O1606     Be1608    10.0   .     S
Na1607     H1630    10.0   .     S
Na1607     Be1608    10.0   .     S
Ti1609     F1610    10.0   .     S
Ti1609     F1612    10.0   .     S
Ti1609     F1611    10.0   .     S
F1610     Ce1626    10.001   .     S
F1611     Ce1628    10.001   .     S
F1612     Ce1617    10.001   .     S
F1613     Ti1614    10.0   .     S
F1613     Ce1628    10.001   .     S
Ti1614     F1616    10.0   .     S
Ti1614     F1615    10.0   .     S
F1615     Ce1617    10.001   .     S
F1616     Ce1627    10.001   .     S
Ce1617     F1618    10.001   .     S
F1618     Ti1619    10.0   .     S
Ti1619     F1621    10.0   .     S
Ti1619     F1620    10.0   .     S
F1620     Ce1626    10.001   .     S
F1621     Ce1627    10.001   .     S
F1622     Ti1623    10.0   .     S
F1622     Ce1628    10.001   .     S
Ti1623     F1625    10.0   .     S
Ti1623     F1624    10.0   .     S
F1624     Ce1626    10.001   .     S
F1625     Ce1627    10.001   .     S
