data_nzn
_audit_creation_date              2020-02-04
_audit_creation_method            'Pymatgen'
_symmetry_space_group_name_H-M    'P1'
_symmetry_Int_Tables_number       1
loop_
_symmetry_equiv_pos_as_xyz
  x,y,z
_cell_length_a                    41.245
_cell_length_b                    41.245
_cell_length_c                    41.245
_cell_angle_alpha                 90.0
_cell_angle_beta                 90.0
_cell_angle_gamma                 90.0
loop_
_atom_site_label
_atom_site_type_symbol
_atom_site_fract_x
_atom_site_fract_y
_atom_site_fract_z
Er1     Er     0.5   0.5   0.5
Er2     Er     0.5   0.0   0.0
Er3     Er     0.0   0.0   0.5
Er4     Er     0.0   0.5   0.5
Ti5     Ti     0.3656   0.0   0.3101
Ti6     Ti     0.3101   0.0   0.1344
Ti7     Ti     0.1899   0.0   0.3656
Ti8     Ti     0.1344   0.0   0.1899
Ti9     Ti     0.3656   0.1899   0.0
Ti10     Ti     0.1899   0.1344   0.0
Ti11     Ti     0.3101   0.3656   0.0
Ti12     Ti     0.1344   0.3101   0.0
Ti13     Ti     0.0   0.1344   0.3101
Ti14     Ti     0.0   0.1899   0.1344
Ti15     Ti     0.0   0.3101   0.3656
Ti16     Ti     0.0   0.3656   0.1899
Ti17     Ti     0.5   0.1899   0.3656
Ti18     Ti     0.5   0.1344   0.1899
Ti19     Ti     0.5   0.3656   0.3101
Ti20     Ti     0.5   0.3101   0.1344
Ti21     Ti     0.3101   0.1344   0.5
Ti22     Ti     0.1344   0.1899   0.5
Ti23     Ti     0.3656   0.3101   0.5
Ti24     Ti     0.1899   0.3656   0.5
Ti25     Ti     0.1344   0.5   0.3101
Ti26     Ti     0.3101   0.5   0.3656
Ti27     Ti     0.3656   0.5   0.1899
Ti28     Ti     0.1899   0.5   0.1344
Ti29     Ti     0.5   0.8101   0.3656
Ti30     Ti     0.5   0.6344   0.3101
Ti31     Ti     0.5   0.6899   0.1344
Ti32     Ti     0.5   0.8656   0.1899
Ti33     Ti     0.3656   0.5   0.8101
Ti34     Ti     0.3101   0.5   0.6344
Ti35     Ti     0.1899   0.5   0.8656
Ti36     Ti     0.1344   0.5   0.6899
Ti37     Ti     0.5   0.3656   0.6899
Ti38     Ti     0.5   0.3101   0.8656
Ti39     Ti     0.5   0.1344   0.8101
Ti40     Ti     0.5   0.1899   0.6344
Ti41     Ti     0.3656   0.0   0.6899
Ti42     Ti     0.3101   0.0   0.8656
Ti43     Ti     0.1344   0.0   0.8101
Ti44     Ti     0.1899   0.0   0.6344
Ti45     Ti     0.5   0.8656   0.8101
Ti46     Ti     0.5   0.8101   0.6344
Ti47     Ti     0.5   0.6344   0.6899
Ti48     Ti     0.5   0.6899   0.8656
Ti49     Ti     0.0   0.3656   0.8101
Ti50     Ti     0.0   0.3101   0.6344
Ti51     Ti     0.0   0.1899   0.8656
Ti52     Ti     0.0   0.1344   0.6899
Ti53     Ti     0.8101   0.0   0.6344
Ti54     Ti     0.8656   0.0   0.8101
Ti55     Ti     0.6344   0.0   0.6899
Ti56     Ti     0.6899   0.0   0.8656
Ti57     Ti     0.3656   0.8101   0.0
Ti58     Ti     0.3101   0.6344   0.0
Ti59     Ti     0.1344   0.6899   0.0
Ti60     Ti     0.1899   0.8656   0.0
Ti61     Ti     0.0   0.6899   0.6344
Ti62     Ti     0.0   0.6344   0.8101
Ti63     Ti     0.0   0.8101   0.8656
Ti64     Ti     0.0   0.8656   0.6899
Ti65     Ti     0.6899   0.6344   0.0
Ti66     Ti     0.6344   0.8101   0.0
Ti67     Ti     0.8101   0.8656   0.0
Ti68     Ti     0.8656   0.6899   0.0
Ti69     Ti     0.8101   0.0   0.3656
Ti70     Ti     0.6344   0.0   0.3101
Ti71     Ti     0.6899   0.0   0.1344
Ti72     Ti     0.8656   0.0   0.1899
Ti73     Ti     0.0   0.6899   0.3656
Ti74     Ti     0.0   0.8656   0.3101
Ti75     Ti     0.0   0.8101   0.1344
Ti76     Ti     0.0   0.6344   0.1899
Ti77     Ti     0.8101   0.3656   0.5
Ti78     Ti     0.6344   0.3101   0.5
Ti79     Ti     0.6899   0.1344   0.5
Ti80     Ti     0.8656   0.1899   0.5
Ti81     Ti     0.3656   0.6899   0.5
Ti82     Ti     0.3101   0.8656   0.5
Ti83     Ti     0.1344   0.8101   0.5
Ti84     Ti     0.1899   0.6344   0.5
Ti85     Ti     0.8656   0.8101   0.5
Ti86     Ti     0.8101   0.6344   0.5
Ti87     Ti     0.6899   0.8656   0.5
Ti88     Ti     0.6344   0.6899   0.5
Ti89     Ti     0.6344   0.5   0.8101
Ti90     Ti     0.8101   0.5   0.8656
Ti91     Ti     0.6899   0.5   0.6344
Ti92     Ti     0.8656   0.5   0.6899
Ti93     Ti     0.6899   0.5   0.3656
Ti94     Ti     0.8656   0.5   0.3101
Ti95     Ti     0.8101   0.5   0.1344
Ti96     Ti     0.6344   0.5   0.1899
Ti97     Ti     0.8656   0.3101   0.0
Ti98     Ti     0.6899   0.3656   0.0
Ti99     Ti     0.8101   0.1344   0.0
Ti100     Ti     0.6344   0.1899   0.0
Er101     Er     0.5   0.0   0.5
Er102     Er     0.5   0.5   0.0
Er103     Er     0.0   0.5   0.0
Er104     Er     0.0   0.0   0.0
V105     V     0.25   0.75   0.75
V106     V     0.75   0.25   0.75
V107     V     0.75   0.75   0.25
V108     V     0.75   0.75   0.75
V109     V     0.25   0.25   0.75
V110     V     0.75   0.25   0.25
V111     V     0.25   0.75   0.25
V112     V     0.25   0.25   0.25
loop_
_geom_bond_atom_site_label_1
_geom_bond_atom_site_label_2
_geom_bond_distance
_geom_bond_site_symmetry_2
_ccdc_geom_bond_type
Er1     Ti81    9.595   .     S
Er1     Ti93    9.595   .     S
Er1     Ti47    9.595   .     S
Er1     Ti37    9.595   .     S
Er1     Ti91    9.595   .     S
Er1     Ti78    9.595   .     S
Er1     Ti34    9.595   .     S
Er1     Ti30    9.595   .     S
Er1     Ti23    9.595   .     S
Er1     Ti19    9.595   .     S
Er1     Ti88    9.595   .     S
Er1     Ti26    9.595   .     S
Er2     Ti9    9.595   .     S
Er2     Ti42    9.595   1_554     S
Er2     Ti56    9.595   1_554     S
Er2     Ti45    9.595   1_544     S
Er2     Ti32    9.595   1_545     S
Er2     Ti6    9.595   .     S
Er2     Ti18    9.595   .     S
Er2     Ti39    9.595   1_554     S
Er2     Ti100    9.595   .     S
Er2     Ti71    9.595   .     S
Er2     Ti57    9.595   1_545     S
Er2     Ti66    9.595   1_545     S
Er3     Ti64    9.595   1_545     S
Er3     Ti7    9.595   .     S
Er3     Ti85    9.595   1_445     S
Er3     Ti80    9.595   1_455     S
Er3     Ti22    9.595   .     S
Er3     Ti83    9.595   1_545     S
Er3     Ti74    9.595   1_545     S
Er3     Ti13    9.595   .     S
Er3     Ti53    9.595   1_455     S
Er3     Ti52    9.595   .     S
Er3     Ti44    9.595   .     S
Er3     Ti69    9.595   1_455     S
Er4     Ti61    9.595   .     S
Er4     Ti73    9.595   .     S
Er4     Ti94    9.595   1_455     S
Er4     Ti92    9.595   1_455     S
Er4     Ti24    9.595   .     S
Er4     Ti86    9.595   1_455     S
Er4     Ti15    9.595   .     S
Er4     Ti25    9.595   .     S
Er4     Ti84    9.595   .     S
Er4     Ti77    9.595   1_455     S
Er4     Ti50    9.595   .     S
Er4     Ti36    9.595   .     S
Ti5     Er101    9.595   .     S
Ti5     Ti70    11.09   .     S
Ti5     Ti17    9.864   .     S
Ti5     Ti21    9.864   .     S
Ti5     Ti29    9.864   1_545     S
Ti5     Ti82    9.864   1_545     S
Ti5     V112    11.627   .     S
Ti5     V111    11.627   1_545     S
Ti5     Ti7    7.599   .     S
Ti5     Ti6    7.599   .     S
Ti5     Ti18    9.279   .     S
Ti5     Ti32    9.279   1_545     S
Ti6     Ti42    11.09   1_554     S
Ti6     Ti9    9.864   .     S
Ti6     Ti18    9.864   .     S
Ti6     Ti32    9.864   1_545     S
Ti6     Ti57    9.864   1_545     S
Ti6     V112    11.627   .     S
Ti6     V111    11.627   1_545     S
Ti6     Ti8    7.599   .     S
Ti6     Ti10    9.279   .     S
Ti6     Ti60    9.279   1_545     S
Ti7     Ti44    11.09   .     S
Ti7     Ti13    9.864   .     S
Ti7     Ti22    9.864   .     S
Ti7     Ti74    9.864   1_545     S
Ti7     Ti83    9.864   1_545     S
Ti7     V112    11.627   .     S
Ti7     V111    11.627   1_545     S
Ti7     Ti8    7.599   .     S
Ti7     Ti21    9.279   .     S
Ti7     Ti82    9.279   1_545     S
Ti8     Er104    9.595   .     S
Ti8     Ti72    11.09   1_455     S
Ti8     Ti10    9.864   .     S
Ti8     Ti14    9.864   .     S
Ti8     Ti60    9.864   1_545     S
Ti8     Ti75    9.864   1_545     S
Ti8     V112    11.627   .     S
Ti8     V111    11.627   1_545     S
Ti8     Ti13    9.279   .     S
Ti8     Ti74    9.279   1_545     S
Ti9     Ti100    11.09   .     S
Ti9     Ti18    9.864   .     S
Ti9     Ti39    9.864   1_554     S
Ti9     Ti42    9.864   1_554     S
Ti9     V112    11.627   .     S
Ti9     V109    11.627   1_554     S
Ti9     Ti10    7.599   .     S
Ti9     Ti11    7.599   .     S
Ti9     Ti20    9.279   .     S
Ti9     Ti38    9.279   1_554     S
Ti10     Er104    9.595   .     S
Ti10     Ti60    11.09   1_545     S
Ti10     Ti14    9.864   .     S
Ti10     Ti43    9.864   1_554     S
Ti10     Ti51    9.864   1_554     S
Ti10     V112    11.627   .     S
Ti10     V109    11.627   1_554     S
Ti10     Ti12    7.599   .     S
Ti10     Ti42    9.279   1_554     S
Ti11     Er102    9.595   .     S
Ti11     Ti58    11.09   .     S
Ti11     Ti20    9.864   .     S
Ti11     Ti27    9.864   .     S
Ti11     Ti33    9.864   1_554     S
Ti11     Ti38    9.864   1_554     S
Ti11     V112    11.627   .     S
Ti11     V109    11.627   1_554     S
Ti11     Ti12    7.599   .     S
Ti11     Ti28    9.279   .     S
Ti11     Ti35    9.279   1_554     S
Ti12     Er103    9.595   .     S
Ti12     Ti97    11.09   1_455     S
Ti12     Ti16    9.864   .     S
Ti12     Ti28    9.864   .     S
Ti12     Ti35    9.864   1_554     S
Ti12     Ti49    9.864   1_554     S
Ti12     V112    11.627   .     S
Ti12     V109    11.627   1_554     S
Ti12     Ti14    9.279   .     S
Ti12     Ti51    9.279   1_554     S
Ti13     Ti74    11.09   1_545     S
Ti13     Ti22    9.864   .     S
Ti13     Ti69    9.864   1_455     S
Ti13     Ti80    9.864   1_455     S
Ti13     V112    11.627   .     S
Ti13     V110    11.627   1_455     S
Ti13     Ti15    7.599   .     S
Ti13     Ti14    7.599   .     S
Ti13     Ti72    9.279   1_455     S
Ti14     Er104    9.595   .     S
Ti14     Ti51    11.09   1_554     S
Ti14     Ti72    9.864   1_455     S
Ti14     Ti99    9.864   1_455     S
Ti14     V112    11.627   .     S
Ti14     V110    11.627   1_455     S
Ti14     Ti16    7.599   .     S
Ti14     Ti97    9.279   1_455     S
Ti15     Ti50    11.09   .     S
Ti15     Ti24    9.864   .     S
Ti15     Ti25    9.864   .     S
Ti15     Ti77    9.864   1_455     S
Ti15     Ti94    9.864   1_455     S
Ti15     V112    11.627   .     S
Ti15     V110    11.627   1_455     S
Ti15     Ti16    7.599   .     S
Ti15     Ti22    9.279   .     S
Ti15     Ti80    9.279   1_455     S
Ti16     Er103    9.595   .     S
Ti16     Ti76    11.09   .     S
Ti16     Ti28    9.864   .     S
Ti16     Ti95    9.864   1_455     S
Ti16     Ti97    9.864   1_455     S
Ti16     V112    11.627   .     S
Ti16     V110    11.627   1_455     S
Ti16     Ti25    9.279   .     S
Ti16     Ti94    9.279   1_455     S
Ti17     Er101    9.595   .     S
Ti17     Ti40    11.09   .     S
Ti17     Ti70    9.864   .     S
Ti17     Ti21    9.864   .     S
Ti17     Ti79    9.864   .     S
Ti17     V112    11.627   .     S
Ti17     V110    11.627   .     S
Ti17     Ti18    7.599   .     S
Ti17     Ti19    7.599   .     S
Ti17     Ti23    9.279   .     S
Ti17     Ti78    9.279   .     S
Ti18     Ti32    11.09   1_545     S
Ti18     Ti71    9.864   .     S
Ti18     Ti100    9.864   .     S
Ti18     V112    11.627   .     S
Ti18     V110    11.627   .     S
Ti18     Ti20    7.599   .     S
Ti18     Ti70    9.279   .     S
Ti19     Ti30    11.09   .     S
Ti19     Ti23    9.864   .     S
Ti19     Ti26    9.864   .     S
Ti19     Ti93    9.864   .     S
Ti19     Ti78    9.864   .     S
Ti19     V112    11.627   .     S
Ti19     V110    11.627   .     S
Ti19     Ti20    7.599   .     S
Ti19     Ti27    9.279   .     S
Ti19     Ti96    9.279   .     S
Ti20     Er102    9.595   .     S
Ti20     Ti38    11.09   1_554     S
Ti20     Ti98    9.864   .     S
Ti20     Ti27    9.864   .     S
Ti20     Ti96    9.864   .     S
Ti20     V112    11.627   .     S
Ti20     V110    11.627   .     S
Ti20     Ti100    9.279   .     S
Ti21     Er101    9.595   .     S
Ti21     Ti82    11.09   1_545     S
Ti21     Ti41    9.864   .     S
Ti21     Ti40    9.864   .     S
Ti21     V112    11.627   .     S
Ti21     V109    11.627   .     S
Ti21     Ti23    7.599   .     S
Ti21     Ti22    7.599   .     S
Ti21     Ti44    9.279   .     S
Ti22     Ti80    11.09   1_455     S
Ti22     Ti52    9.864   .     S
Ti22     Ti44    9.864   .     S
Ti22     V112    11.627   .     S
Ti22     V109    11.627   .     S
Ti22     Ti24    7.599   .     S
Ti22     Ti50    9.279   .     S
Ti23     Ti78    11.09   .     S
Ti23     Ti34    9.864   .     S
Ti23     Ti37    9.864   .     S
Ti23     Ti26    9.864   .     S
Ti23     V112    11.627   .     S
Ti23     V109    11.627   .     S
Ti23     Ti24    7.599   .     S
Ti23     Ti40    9.279   .     S
Ti24     Ti84    11.09   .     S
Ti24     Ti50    9.864   .     S
Ti24     Ti36    9.864   .     S
Ti24     Ti25    9.864   .     S
Ti24     V112    11.627   .     S
Ti24     V109    11.627   .     S
Ti24     Ti34    9.279   .     S
Ti24     Ti26    9.279   .     S
Ti25     Ti94    11.09   1_455     S
Ti25     Ti73    9.864   .     S
Ti25     Ti84    9.864   .     S
Ti25     V112    11.627   .     S
Ti25     V111    11.627   .     S
Ti25     Ti26    7.599   .     S
Ti25     Ti28    7.599   .     S
Ti25     Ti76    9.279   .     S
Ti26     Ti34    11.09   .     S
Ti26     Ti81    9.864   .     S
Ti26     Ti30    9.864   .     S
Ti26     V112    11.627   .     S
Ti26     V111    11.627   .     S
Ti26     Ti27    7.599   .     S
Ti26     Ti84    9.279   .     S
Ti27     Er102    9.595   .     S
Ti27     Ti96    11.09   .     S
Ti27     Ti58    9.864   .     S
Ti27     Ti31    9.864   .     S
Ti27     V112    11.627   .     S
Ti27     V111    11.627   .     S
Ti27     Ti28    7.599   .     S
Ti27     Ti30    9.279   .     S
Ti28     Er103    9.595   .     S
Ti28     Ti35    11.09   1_554     S
Ti28     Ti76    9.864   .     S
Ti28     Ti59    9.864   .     S
Ti28     V112    11.627   .     S
Ti28     V111    11.627   .     S
Ti28     Ti58    9.279   .     S
Ti29     Er101    9.595   1_565     S
Ti29     Ti46    11.09   .     S
Ti29     Ti70    9.864   1_565     S
Ti29     Ti5    9.864   1_565     S
Ti29     Ti87    9.864   .     S
Ti29     Ti82    9.864   .     S
Ti29     V111    11.627   .     S
Ti29     V107    11.627   .     S
Ti29     Ti30    7.599   .     S
Ti29     Ti32    7.599   .     S
Ti29     Ti88    9.279   .     S
Ti29     Ti81    9.279   .     S
Ti30     Ti93    9.864   .     S
Ti30     Ti88    9.864   .     S
Ti30     Ti81    9.864   .     S
Ti30     V111    11.627   .     S
Ti30     V107    11.627   .     S
Ti30     Ti31    7.599   .     S
Ti30     Ti96    9.279   .     S
Ti31     Er102    9.595   .     S
Ti31     Ti48    11.09   1_554     S
Ti31     Ti96    9.864   .     S
Ti31     Ti58    9.864   .     S
Ti31     Ti65    9.864   .     S
Ti31     V111    11.627   .     S
Ti31     V107    11.627   .     S
Ti31     Ti32    7.599   .     S
Ti31     Ti57    9.279   .     S
Ti31     Ti66    9.279   .     S
Ti32     Er2    9.595   1_565     S
Ti32     Ti18    11.09   1_565     S
Ti32     Ti57    9.864   .     S
Ti32     Ti66    9.864   .     S
Ti32     Ti71    9.864   1_565     S
Ti32     Ti6    9.864   1_565     S
Ti32     V111    11.627   .     S
Ti32     V107    11.627   .     S
Ti32     Ti70    9.279   1_565     S
Ti32     Ti5    9.279   1_565     S
Ti33     Er102    9.595   1_556     S
Ti33     Ti89    11.09   .     S
Ti33     Ti58    9.864   1_556     S
Ti33     Ti11    9.864   1_556     S
Ti33     Ti48    9.864   .     S
Ti33     Ti38    9.864   .     S
Ti33     V109    11.627   .     S
Ti33     V105    11.627   .     S
Ti33     Ti34    7.599   .     S
Ti33     Ti35    7.599   .     S
Ti33     Ti47    9.279   .     S
Ti33     Ti37    9.279   .     S
Ti34     Ti81    9.864   .     S
Ti34     Ti47    9.864   .     S
Ti34     Ti37    9.864   .     S
Ti34     V109    11.627   .     S
Ti34     V105    11.627   .     S
Ti34     Ti36    7.599   .     S
Ti34     Ti84    9.279   .     S
Ti35     Er103    9.595   1_556     S
Ti35     Ti28    11.09   1_556     S
Ti35     Ti62    9.864   .     S
Ti35     Ti49    9.864   .     S
Ti35     Ti59    9.864   1_556     S
Ti35     Ti12    9.864   1_556     S
Ti35     V109    11.627   .     S
Ti35     V105    11.627   .     S
Ti35     Ti36    7.599   .     S
Ti35     Ti58    9.279   1_556     S
Ti35     Ti11    9.279   1_556     S
Ti36     Ti92    11.09   1_455     S
Ti36     Ti84    9.864   .     S
Ti36     Ti61    9.864   .     S
Ti36     Ti50    9.864   .     S
Ti36     V109    11.627   .     S
Ti36     V105    11.627   .     S
Ti36     Ti62    9.279   .     S
Ti36     Ti49    9.279   .     S
Ti37     Ti47    11.09   .     S
Ti37     Ti78    9.864   .     S
Ti37     Ti91    9.864   .     S
Ti37     V109    11.627   .     S
Ti37     V106    11.627   .     S
Ti37     Ti40    7.599   .     S
Ti37     Ti38    7.599   .     S
Ti37     Ti89    9.279   .     S
Ti38     Er102    9.595   1_556     S
Ti38     Ti20    11.09   1_556     S
Ti38     Ti98    9.864   1_556     S
Ti38     Ti89    9.864   .     S
Ti38     Ti11    9.864   1_556     S
Ti38     V109    11.627   .     S
Ti38     V106    11.627   .     S
Ti38     Ti39    7.599   .     S
Ti38     Ti100    9.279   1_556     S
Ti38     Ti9    9.279   1_556     S
Ti39     Er2    9.595   1_556     S
Ti39     Ti45    11.09   1_545     S
Ti39     Ti100    9.864   1_556     S
Ti39     Ti56    9.864   .     S
Ti39     Ti9    9.864   1_556     S
Ti39     Ti42    9.864   .     S
Ti39     V109    11.627   .     S
Ti39     V106    11.627   .     S
Ti39     Ti40    7.599   .     S
Ti39     Ti55    9.279   .     S
Ti39     Ti41    9.279   .     S
Ti40     Er101    9.595   .     S
Ti40     Ti79    9.864   .     S
Ti40     Ti55    9.864   .     S
Ti40     Ti41    9.864   .     S
Ti40     V109    11.627   .     S
Ti40     V106    11.627   .     S
Ti40     Ti78    9.279   .     S
Ti41     Er101    9.595   .     S
Ti41     Ti55    11.09   .     S
Ti41     Ti82    9.864   1_545     S
Ti41     Ti46    9.864   1_545     S
Ti41     V109    11.627   .     S
Ti41     V105    11.627   1_545     S
Ti41     Ti44    7.599   .     S
Ti41     Ti42    7.599   .     S
Ti41     Ti45    9.279   1_545     S
Ti42     Er2    9.595   1_556     S
Ti42     Ti6    11.09   1_556     S
Ti42     Ti57    9.864   1_546     S
Ti42     Ti9    9.864   1_556     S
Ti42     Ti45    9.864   1_545     S
Ti42     V109    11.627   .     S
Ti42     V105    11.627   1_545     S
Ti42     Ti43    7.599   .     S
Ti42     Ti60    9.279   1_546     S
Ti42     Ti10    9.279   1_556     S
Ti43     Er104    9.595   1_556     S
Ti43     Ti54    11.09   1_455     S
Ti43     Ti60    9.864   1_546     S
Ti43     Ti51    9.864   .     S
Ti43     Ti10    9.864   1_556     S
Ti43     Ti63    9.864   1_545     S
Ti43     V109    11.627   .     S
Ti43     V105    11.627   1_545     S
Ti43     Ti44    7.599   .     S
Ti43     Ti52    9.279   .     S
Ti43     Ti64    9.279   1_545     S
Ti44     Ti52    9.864   .     S
Ti44     Ti83    9.864   1_545     S
Ti44     Ti64    9.864   1_545     S
Ti44     V109    11.627   .     S
Ti44     V105    11.627   1_545     S
Ti44     Ti82    9.279   1_545     S
Ti45     Er2    9.595   1_566     S
Ti45     Ti39    11.09   1_565     S
Ti45     Ti42    9.864   1_565     S
Ti45     Ti56    9.864   1_565     S
Ti45     Ti66    9.864   1_556     S
Ti45     Ti57    9.864   1_556     S
Ti45     V108    11.627   .     S
Ti45     V105    11.627   .     S
Ti45     Ti46    7.599   .     S
Ti45     Ti48    7.599   .     S
Ti45     Ti41    9.279   1_565     S
Ti45     Ti55    9.279   1_565     S
Ti46     Er101    9.595   1_565     S
Ti46     Ti41    9.864   1_565     S
Ti46     Ti55    9.864   1_565     S
Ti46     Ti82    9.864   .     S
Ti46     Ti87    9.864   .     S
Ti46     V108    11.627   .     S
Ti46     V105    11.627   .     S
Ti46     Ti47    7.599   .     S
Ti46     Ti81    9.279   .     S
Ti46     Ti88    9.279   .     S
Ti47     Ti91    9.864   .     S
Ti47     Ti81    9.864   .     S
Ti47     Ti88    9.864   .     S
Ti47     V108    11.627   .     S
Ti47     V105    11.627   .     S
Ti47     Ti48    7.599   .     S
Ti47     Ti89    9.279   .     S
Ti48     Er102    9.595   1_556     S
Ti48     Ti31    11.09   1_556     S
Ti48     Ti89    9.864   .     S
Ti48     Ti65    9.864   1_556     S
Ti48     Ti58    9.864   1_556     S
Ti48     V108    11.627   .     S
Ti48     V105    11.627   .     S
Ti48     Ti66    9.279   1_556     S
Ti48     Ti57    9.279   1_556     S
Ti49     Er103    9.595   1_556     S
Ti49     Ti62    11.09   .     S
Ti49     Ti12    9.864   1_556     S
Ti49     Ti97    9.864   1_456     S
Ti49     Ti90    9.864   1_455     S
Ti49     V109    11.627   .     S
Ti49     V106    11.627   1_455     S
Ti49     Ti50    7.599   .     S
Ti49     Ti51    7.599   .     S
Ti49     Ti92    9.279   1_455     S
Ti50     Ti77    9.864   1_455     S
Ti50     Ti92    9.864   1_455     S
Ti50     V109    11.627   .     S
Ti50     V106    11.627   1_455     S
Ti50     Ti52    7.599   .     S
Ti50     Ti80    9.279   1_455     S
Ti51     Er104    9.595   1_556     S
Ti51     Ti14    11.09   1_556     S
Ti51     Ti10    9.864   1_556     S
Ti51     Ti99    9.864   1_456     S
Ti51     Ti54    9.864   1_455     S
Ti51     V109    11.627   .     S
Ti51     V106    11.627   1_455     S
Ti51     Ti52    7.599   .     S
Ti51     Ti12    9.279   1_556     S
Ti51     Ti97    9.279   1_456     S
Ti52     Ti64    11.09   1_545     S
Ti52     Ti53    9.864   1_455     S
Ti52     Ti80    9.864   1_455     S
Ti52     V109    11.627   .     S
Ti52     V106    11.627   1_455     S
Ti52     Ti54    9.279   1_455     S
Ti53     Er3    9.595   1_655     S
Ti53     Ti69    11.09   .     S
Ti53     Ti85    9.864   1_545     S
Ti53     Ti52    9.864   1_655     S
Ti53     Ti64    9.864   1_645     S
Ti53     Ti80    9.864   .     S
Ti53     V108    11.627   1_545     S
Ti53     V106    11.627   .     S
Ti53     Ti55    7.599   .     S
Ti53     Ti54    7.599   .     S
Ti53     Ti87    9.279   1_545     S
Ti53     Ti79    9.279   .     S
Ti54     Er104    9.595   1_656     S
Ti54     Ti43    11.09   1_655     S
Ti54     Ti51    9.864   1_655     S
Ti54     Ti63    9.864   1_645     S
Ti54     Ti99    9.864   1_556     S
Ti54     Ti67    9.864   1_546     S
Ti54     V108    11.627   1_545     S
Ti54     V106    11.627   .     S
Ti54     Ti56    7.599   .     S
Ti54     Ti52    9.279   1_655     S
Ti54     Ti64    9.279   1_645     S
Ti55     Er101    9.595   .     S
Ti55     Ti87    9.864   1_545     S
Ti55     Ti46    9.864   1_545     S
Ti55     Ti79    9.864   .     S
Ti55     V108    11.627   1_545     S
Ti55     V106    11.627   .     S
Ti55     Ti56    7.599   .     S
Ti55     Ti45    9.279   1_545     S
Ti56     Er2    9.595   1_556     S
Ti56     Ti71    11.09   1_556     S
Ti56     Ti45    9.864   1_545     S
Ti56     Ti100    9.864   1_556     S
Ti56     Ti66    9.864   1_546     S
Ti56     V108    11.627   1_545     S
Ti56     V106    11.627   .     S
Ti56     Ti99    9.279   1_556     S
Ti56     Ti67    9.279   1_546     S
Ti57     Er2    9.595   1_565     S
Ti57     Ti66    11.09   .     S
Ti57     Ti42    9.864   1_564     S
Ti57     Ti45    9.864   1_554     S
Ti57     Ti6    9.864   1_565     S
Ti57     V111    11.627   .     S
Ti57     V105    11.627   1_554     S
Ti57     Ti58    7.599   .     S
Ti57     Ti60    7.599   .     S
Ti57     Ti48    9.279   1_554     S
Ti58     Er102    9.595   .     S
Ti58     Ti33    9.864   1_554     S
Ti58     Ti48    9.864   1_554     S
Ti58     V111    11.627   .     S
Ti58     V105    11.627   1_554     S
Ti58     Ti59    7.599   .     S
Ti58     Ti35    9.279   1_554     S
Ti59     Er103    9.595   .     S
Ti59     Ti68    11.09   1_455     S
Ti59     Ti35    9.864   1_554     S
Ti59     Ti76    9.864   .     S
Ti59     Ti62    9.864   1_554     S
Ti59     V111    11.627   .     S
Ti59     V105    11.627   1_554     S
Ti59     Ti60    7.599   .     S
Ti59     Ti75    9.279   .     S
Ti59     Ti63    9.279   1_554     S
Ti60     Er104    9.595   1_565     S
Ti60     Ti10    11.09   1_565     S
Ti60     Ti43    9.864   1_564     S
Ti60     Ti75    9.864   .     S
Ti60     Ti8    9.864   1_565     S
Ti60     Ti63    9.864   1_554     S
Ti60     V111    11.627   .     S
Ti60     V105    11.627   1_554     S
Ti60     Ti42    9.279   1_564     S
Ti60     Ti6    9.279   1_565     S
Ti61     Ti73    11.09   .     S
Ti61     Ti84    9.864   .     S
Ti61     Ti86    9.864   1_455     S
Ti61     Ti92    9.864   1_455     S
Ti61     V108    11.627   1_455     S
Ti61     V105    11.627   .     S
Ti61     Ti64    7.599   .     S
Ti61     Ti62    7.599   .     S
Ti61     Ti83    9.279   .     S
Ti61     Ti85    9.279   1_455     S
Ti62     Er103    9.595   1_556     S
Ti62     Ti59    9.864   1_556     S
Ti62     Ti68    9.864   1_456     S
Ti62     Ti90    9.864   1_455     S
Ti62     V108    11.627   1_455     S
Ti62     V105    11.627   .     S
Ti62     Ti63    7.599   .     S
Ti62     Ti92    9.279   1_455     S
Ti63     Er104    9.595   1_566     S
Ti63     Ti75    11.09   1_556     S
Ti63     Ti54    9.864   1_465     S
Ti63     Ti43    9.864   1_565     S
Ti63     Ti60    9.864   1_556     S
Ti63     Ti67    9.864   1_456     S
Ti63     V108    11.627   1_455     S
Ti63     V105    11.627   .     S
Ti63     Ti64    7.599   .     S
Ti63     Ti59    9.279   1_556     S
Ti63     Ti68    9.279   1_456     S
Ti64     Er3    9.595   1_565     S
Ti64     Ti52    11.09   1_565     S
Ti64     Ti53    9.864   1_465     S
Ti64     Ti44    9.864   1_565     S
Ti64     Ti83    9.864   .     S
Ti64     Ti85    9.864   1_455     S
Ti64     V108    11.627   1_455     S
Ti64     V105    11.627   .     S
Ti64     Ti54    9.279   1_465     S
Ti64     Ti43    9.279   1_565     S
Ti65     Er102    9.595   .     S
Ti65     Ti98    11.09   .     S
Ti65     Ti48    9.864   1_554     S
Ti65     Ti89    9.864   1_554     S
Ti65     Ti96    9.864   .     S
Ti65     V108    11.627   1_554     S
Ti65     V107    11.627   .     S
Ti65     Ti68    7.599   .     S
Ti65     Ti66    7.599   .     S
Ti65     Ti90    9.279   1_554     S
Ti65     Ti95    9.279   .     S
Ti66     Er2    9.595   1_565     S
Ti66     Ti45    9.864   1_554     S
Ti66     Ti56    9.864   1_564     S
Ti66     Ti71    9.864   1_565     S
Ti66     V108    11.627   1_554     S
Ti66     V107    11.627   .     S
Ti66     Ti67    7.599   .     S
Ti66     Ti48    9.279   1_554     S
Ti67     Er104    9.595   1_665     S
Ti67     Ti99    11.09   1_565     S
Ti67     Ti54    9.864   1_564     S
Ti67     Ti63    9.864   1_654     S
Ti67     Ti72    9.864   1_565     S
Ti67     Ti75    9.864   1_655     S
Ti67     V108    11.627   1_554     S
Ti67     V107    11.627   .     S
Ti67     Ti68    7.599   .     S
Ti67     Ti56    9.279   1_564     S
Ti67     Ti71    9.279   1_565     S
Ti68     Er103    9.595   1_655     S
Ti68     Ti59    11.09   1_655     S
Ti68     Ti62    9.864   1_654     S
Ti68     Ti76    9.864   1_655     S
Ti68     Ti90    9.864   1_554     S
Ti68     Ti95    9.864   .     S
Ti68     V108    11.627   1_554     S
Ti68     V107    11.627   .     S
Ti68     Ti63    9.279   1_654     S
Ti68     Ti75    9.279   1_655     S
Ti69     Er3    9.595   1_655     S
Ti69     Ti13    9.864   1_655     S
Ti69     Ti74    9.864   1_645     S
Ti69     Ti80    9.864   .     S
Ti69     Ti85    9.864   1_545     S
Ti69     V110    11.627   .     S
Ti69     V107    11.627   1_545     S
Ti69     Ti70    7.599   .     S
Ti69     Ti72    7.599   .     S
Ti69     Ti79    9.279   .     S
Ti69     Ti87    9.279   1_545     S
Ti70     Er101    9.595   .     S
Ti70     Ti29    9.864   1_545     S
Ti70     Ti79    9.864   .     S
Ti70     Ti87    9.864   1_545     S
Ti70     V110    11.627   .     S
Ti70     V107    11.627   1_545     S
Ti70     Ti71    7.599   .     S
Ti70     Ti32    9.279   1_545     S
Ti71     Ti56    11.09   1_554     S
Ti71     Ti32    9.864   1_545     S
Ti71     Ti100    9.864   .     S
Ti71     Ti66    9.864   1_545     S
Ti71     V110    11.627   .     S
Ti71     V107    11.627   1_545     S
Ti71     Ti72    7.599   .     S
Ti71     Ti99    9.279   .     S
Ti71     Ti67    9.279   1_545     S
Ti72     Er104    9.595   1_655     S
Ti72     Ti8    11.09   1_655     S
Ti72     Ti99    9.864   .     S
Ti72     Ti67    9.864   1_545     S
Ti72     Ti14    9.864   1_655     S
Ti72     Ti75    9.864   1_645     S
Ti72     V110    11.627   .     S
Ti72     V107    11.627   1_545     S
Ti72     Ti13    9.279   1_655     S
Ti72     Ti74    9.279   1_645     S
Ti73     Ti94    9.864   1_455     S
Ti73     Ti84    9.864   .     S
Ti73     Ti86    9.864   1_455     S
Ti73     V111    11.627   .     S
Ti73     V107    11.627   1_455     S
Ti73     Ti76    7.599   .     S
Ti73     Ti74    7.599   .     S
Ti73     Ti83    9.279   .     S
Ti73     Ti85    9.279   1_455     S
Ti74     Er3    9.595   1_565     S
Ti74     Ti13    11.09   1_565     S
Ti74     Ti69    9.864   1_465     S
Ti74     Ti7    9.864   1_565     S
Ti74     Ti83    9.864   .     S
Ti74     Ti85    9.864   1_455     S
Ti74     V111    11.627   .     S
Ti74     V107    11.627   1_455     S
Ti74     Ti75    7.599   .     S
Ti74     Ti72    9.279   1_465     S
Ti74     Ti8    9.279   1_565     S
Ti75     Er104    9.595   1_565     S
Ti75     Ti63    11.09   1_554     S
Ti75     Ti72    9.864   1_465     S
Ti75     Ti67    9.864   1_455     S
Ti75     Ti8    9.864   1_565     S
Ti75     V111    11.627   .     S
Ti75     V107    11.627   1_455     S
Ti75     Ti76    7.599   .     S
Ti75     Ti68    9.279   1_455     S
Ti76     Er103    9.595   .     S
Ti76     Ti95    9.864   1_455     S
Ti76     Ti68    9.864   1_455     S
Ti76     V111    11.627   .     S
Ti76     V107    11.627   1_455     S
Ti76     Ti94    9.279   1_455     S
Ti77     Er4    9.595   1_655     S
Ti77     Ti86    11.09   .     S
Ti77     Ti50    9.864   1_655     S
Ti77     Ti15    9.864   1_655     S
Ti77     Ti92    9.864   .     S
Ti77     Ti94    9.864   .     S
Ti77     V110    11.627   .     S
Ti77     V106    11.627   .     S
Ti77     Ti78    7.599   .     S
Ti77     Ti80    7.599   .     S
Ti77     Ti91    9.279   .     S
Ti77     Ti93    9.279   .     S
Ti78     Ti91    9.864   .     S
Ti78     Ti93    9.864   .     S
Ti78     V110    11.627   .     S
Ti78     V106    11.627   .     S
Ti78     Ti79    7.599   .     S
Ti79     Er101    9.595   .     S
Ti79     Ti87    11.09   1_545     S
Ti79     V110    11.627   .     S
Ti79     V106    11.627   .     S
Ti79     Ti80    7.599   .     S
Ti80     Er3    9.595   1_655     S
Ti80     Ti22    11.09   1_655     S
Ti80     Ti52    9.864   1_655     S
Ti80     Ti13    9.864   1_655     S
Ti80     V110    11.627   .     S
Ti80     V106    11.627   .     S
Ti80     Ti50    9.279   1_655     S
Ti80     Ti15    9.279   1_655     S
Ti81     Ti88    11.09   .     S
Ti81     V111    11.627   .     S
Ti81     V105    11.627   .     S
Ti81     Ti84    7.599   .     S
Ti81     Ti82    7.599   .     S
Ti82     Er101    9.595   1_565     S
Ti82     Ti21    11.09   1_565     S
Ti82     Ti41    9.864   1_565     S
Ti82     Ti5    9.864   1_565     S
Ti82     V111    11.627   .     S
Ti82     V105    11.627   .     S
Ti82     Ti83    7.599   .     S
Ti82     Ti44    9.279   1_565     S
Ti82     Ti7    9.279   1_565     S
Ti83     Er3    9.595   1_565     S
Ti83     Ti85    11.09   1_455     S
Ti83     Ti44    9.864   1_565     S
Ti83     Ti7    9.864   1_565     S
Ti83     V111    11.627   .     S
Ti83     V105    11.627   .     S
Ti83     Ti84    7.599   .     S
Ti84     V111    11.627   .     S
Ti84     V105    11.627   .     S
Ti85     Er3    9.595   1_665     S
Ti85     Ti83    11.09   1_655     S
Ti85     Ti53    9.864   1_565     S
Ti85     Ti74    9.864   1_655     S
Ti85     Ti69    9.864   1_565     S
Ti85     Ti64    9.864   1_655     S
Ti85     V108    11.627   .     S
Ti85     V107    11.627   .     S
Ti85     Ti86    7.599   .     S
Ti85     Ti87    7.599   .     S
Ti85     Ti73    9.279   1_655     S
Ti85     Ti61    9.279   1_655     S
Ti86     Er4    9.595   1_655     S
Ti86     Ti73    9.864   1_655     S
Ti86     Ti61    9.864   1_655     S
Ti86     Ti92    9.864   .     S
Ti86     Ti94    9.864   .     S
Ti86     V108    11.627   .     S
Ti86     V107    11.627   .     S
Ti86     Ti88    7.599   .     S
Ti86     Ti91    9.279   .     S
Ti86     Ti93    9.279   .     S
Ti87     Er101    9.595   1_565     S
Ti87     Ti79    11.09   1_565     S
Ti87     Ti55    9.864   1_565     S
Ti87     Ti70    9.864   1_565     S
Ti87     V108    11.627   .     S
Ti87     V107    11.627   .     S
Ti87     Ti88    7.599   .     S
Ti87     Ti53    9.279   1_565     S
Ti87     Ti69    9.279   1_565     S
Ti88     Ti91    9.864   .     S
Ti88     Ti93    9.864   .     S
Ti88     V108    11.627   .     S
Ti88     V107    11.627   .     S
Ti89     Er102    9.595   1_556     S
Ti89     Ti65    9.864   1_556     S
Ti89     Ti98    9.864   1_556     S
Ti89     V108    11.627   .     S
Ti89     V106    11.627   .     S
Ti89     Ti91    7.599   .     S
Ti89     Ti90    7.599   .     S
Ti90     Er103    9.595   1_656     S
Ti90     Ti95    11.09   1_556     S
Ti90     Ti62    9.864   1_655     S
Ti90     Ti68    9.864   1_556     S
Ti90     Ti49    9.864   1_655     S
Ti90     Ti97    9.864   1_556     S
Ti90     V108    11.627   .     S
Ti90     V106    11.627   .     S
Ti90     Ti92    7.599   .     S
Ti90     Ti65    9.279   1_556     S
Ti90     Ti98    9.279   1_556     S
Ti91     Ti93    11.09   .     S
Ti91     V108    11.627   .     S
Ti91     V106    11.627   .     S
Ti91     Ti92    7.599   .     S
Ti92     Er4    9.595   1_655     S
Ti92     Ti36    11.09   1_655     S
Ti92     Ti61    9.864   1_655     S
Ti92     Ti50    9.864   1_655     S
Ti92     V108    11.627   .     S
Ti92     V106    11.627   .     S
Ti92     Ti62    9.279   1_655     S
Ti92     Ti49    9.279   1_655     S
Ti93     V110    11.627   .     S
Ti93     V107    11.627   .     S
Ti93     Ti96    7.599   .     S
Ti93     Ti94    7.599   .     S
Ti94     Er4    9.595   1_655     S
Ti94     Ti25    11.09   1_655     S
Ti94     Ti73    9.864   1_655     S
Ti94     Ti15    9.864   1_655     S
Ti94     V110    11.627   .     S
Ti94     V107    11.627   .     S
Ti94     Ti95    7.599   .     S
Ti94     Ti76    9.279   1_655     S
Ti94     Ti16    9.279   1_655     S
Ti95     Er103    9.595   1_655     S
Ti95     Ti90    11.09   1_554     S
Ti95     Ti76    9.864   1_655     S
Ti95     Ti16    9.864   1_655     S
Ti95     Ti97    9.864   .     S
Ti95     V110    11.627   .     S
Ti95     V107    11.627   .     S
Ti95     Ti96    7.599   .     S
Ti95     Ti98    9.279   .     S
Ti96     Er102    9.595   .     S
Ti96     Ti98    9.864   .     S
Ti96     V110    11.627   .     S
Ti96     V107    11.627   .     S
Ti97     Er103    9.595   1_655     S
Ti97     Ti12    11.09   1_655     S
Ti97     Ti49    9.864   1_654     S
Ti97     Ti90    9.864   1_554     S
Ti97     Ti16    9.864   1_655     S
Ti97     V110    11.627   .     S
Ti97     V106    11.627   1_554     S
Ti97     Ti98    7.599   .     S
Ti97     Ti99    7.599   .     S
Ti97     Ti51    9.279   1_654     S
Ti97     Ti14    9.279   1_655     S
Ti98     Er102    9.595   .     S
Ti98     Ti38    9.864   1_554     S
Ti98     Ti89    9.864   1_554     S
Ti98     V110    11.627   .     S
Ti98     V106    11.627   1_554     S
Ti98     Ti100    7.599   .     S
Ti98     Ti90    9.279   1_554     S
Ti99     Er104    9.595   1_655     S
Ti99     Ti67    11.09   1_545     S
Ti99     Ti51    9.864   1_654     S
Ti99     Ti54    9.864   1_554     S
Ti99     Ti14    9.864   1_655     S
Ti99     V110    11.627   .     S
Ti99     V106    11.627   1_554     S
Ti99     Ti100    7.599   .     S
Ti99     Ti56    9.279   1_554     S
Ti100     Ti39    9.864   1_554     S
Ti100     Ti56    9.864   1_554     S
Ti100     V110    11.627   .     S
Ti100     V106    11.627   1_554     S
Ti100     Ti38    9.279   1_554     S
Er101     Ti87    9.595   1_545     S
Er101     Ti82    9.595   1_545     S
Er101     Ti46    9.595   1_545     S
Er101     Ti29    9.595   1_545     S
Er102     Ti38    9.595   1_554     S
Er102     Ti48    9.595   1_554     S
Er102     Ti33    9.595   1_554     S
Er102     Ti89    9.595   1_554     S
Er103     Ti97    9.595   1_455     S
Er103     Ti35    9.595   1_554     S
Er103     Ti90    9.595   1_454     S
Er103     Ti68    9.595   1_455     S
Er103     Ti62    9.595   1_554     S
Er103     Ti95    9.595   1_455     S
Er103     Ti49    9.595   1_554     S
Er104     Ti51    9.595   1_554     S
Er104     Ti63    9.595   1_544     S
Er104     Ti67    9.595   1_445     S
Er104     Ti72    9.595   1_455     S
Er104     Ti54    9.595   1_454     S
Er104     Ti99    9.595   1_455     S
Er104     Ti75    9.595   1_545     S
Er104     Ti43    9.595   1_554     S
Er104     Ti60    9.595   1_545     S
V105     Ti59    11.627   1_556     S
V105     Ti58    11.627   1_556     S
V105     Ti57    11.627   1_556     S
V105     Ti60    11.627   1_556     S
V105     Ti41    11.627   1_565     S
V105     Ti42    11.627   1_565     S
V105     Ti43    11.627   1_565     S
V105     Ti44    11.627   1_565     S
V106     Ti99    11.627   1_556     S
V106     Ti97    11.627   1_556     S
V106     Ti100    11.627   1_556     S
V106     Ti98    11.627   1_556     S
V106     Ti52    11.627   1_655     S
V106     Ti51    11.627   1_655     S
V106     Ti50    11.627   1_655     S
V106     Ti49    11.627   1_655     S
V107     Ti74    11.627   1_655     S
V107     Ti75    11.627   1_655     S
V107     Ti76    11.627   1_655     S
V107     Ti73    11.627   1_655     S
V107     Ti70    11.627   1_565     S
V107     Ti71    11.627   1_565     S
V107     Ti69    11.627   1_565     S
V107     Ti72    11.627   1_565     S
V108     Ti67    11.627   1_556     S
V108     Ti68    11.627   1_556     S
V108     Ti66    11.627   1_556     S
V108     Ti65    11.627   1_556     S
V108     Ti63    11.627   1_655     S
V108     Ti64    11.627   1_655     S
V108     Ti62    11.627   1_655     S
V108     Ti61    11.627   1_655     S
V108     Ti56    11.627   1_565     S
V108     Ti55    11.627   1_565     S
V108     Ti54    11.627   1_565     S
V108     Ti53    11.627   1_565     S
V109     Ti12    11.627   1_556     S
V109     Ti11    11.627   1_556     S
V109     Ti10    11.627   1_556     S
V109     Ti9    11.627   1_556     S
V110     Ti14    11.627   1_655     S
V110     Ti13    11.627   1_655     S
V110     Ti15    11.627   1_655     S
V110     Ti16    11.627   1_655     S
V111     Ti6    11.627   1_565     S
V111     Ti5    11.627   1_565     S
V111     Ti7    11.627   1_565     S
V111     Ti8    11.627   1_565     S
