data_ofo
_audit_creation_date              2020-02-04
_audit_creation_method            'Pymatgen'
_symmetry_space_group_name_H-M    'P1'
_symmetry_Int_Tables_number       1
loop_
_symmetry_equiv_pos_as_xyz
  x,y,z
_cell_length_a                    15.785
_cell_length_b                    15.785
_cell_length_c                    41.1779
_cell_angle_alpha                 90.0
_cell_angle_beta                 90.0
_cell_angle_gamma                 120.0
loop_
_atom_site_label
_atom_site_type_symbol
_atom_site_fract_x
_atom_site_fract_y
_atom_site_fract_z
V1     V     0.3674   0.1385   0.5936
V2     V     0.6326   0.8615   0.5936
V3     V     0.1385   0.3674   0.7397
V4     V     0.8615   0.6326   0.7397
V5     V     0.3674   0.2289   0.0731
V6     V     0.6326   0.7711   0.0731
V7     V     0.8615   0.2289   0.9269
V8     V     0.1385   0.7711   0.9269
V9     V     0.7711   0.1385   0.4064
V10     V     0.2289   0.8615   0.4064
V11     V     0.2289   0.3674   0.2603
V12     V     0.7711   0.6326   0.2603
loop_
_geom_bond_atom_site_label_1
_geom_bond_atom_site_label_2
_geom_bond_distance
_geom_bond_site_symmetry_2
_ccdc_geom_bond_type
V1     V9    10.0   .     S
V1     V2    10.0   .     S
V1     V4    10.0   1_445     S
V2     V3    10.0   1_665     S
V2     V10    10.0   .     S
V3     V2    10.0   1_445     S
V3     V4    10.0   .     S
V3     V8    10.0   .     S
V4     V1    10.0   1_665     S
V4     V7    10.0   .     S
V5     V6    10.0   1_545     S
V5     V7    10.0   1_454     S
V5     V12    10.0   .     S
V6     V5    10.0   1_565     S
V6     V8    10.0   1_654     S
V6     V11    10.0   .     S
V7     V8    10.0   1_545     S
V7     V5    10.0   1_656     S
V8     V7    10.0   1_565     S
V8     V6    10.0   1_456     S
V9     V10    10.0   1_655     S
V9     V12    10.0   1_545     S
V10     V9    10.0   1_455     S
V10     V11    10.0   1_565     S
V11     V12    10.0   1_455     S
V11     V10    10.0   1_545     S
V12     V11    10.0   1_655     S
V12     V9    10.0   1_565     S
