data_otta
_audit_creation_date              2020-02-04
_audit_creation_method            'Pymatgen'
_symmetry_space_group_name_H-M    'P1'
_symmetry_Int_Tables_number       1
loop_
_symmetry_equiv_pos_as_xyz
  x,y,z
_cell_length_a                    147.3894
_cell_length_b                    147.3894
_cell_length_c                    147.3894
_cell_angle_alpha                 90.0
_cell_angle_beta                 90.0
_cell_angle_gamma                 90.0
loop_
_atom_site_label
_atom_site_type_symbol
_atom_site_fract_x
_atom_site_fract_y
_atom_site_fract_z
Er1     Er     0.5819   0.5819   0.6299
Er2     Er     0.5819   0.6299   0.5819
Er3     Er     0.6299   0.5819   0.5819
Er4     Er     0.6299   0.4181   0.4181
Er5     Er     0.5819   0.3701   0.4181
Er6     Er     0.5819   0.4181   0.3701
V7     V     0.5819   0.5339   0.4181
V8     V     0.5819   0.4661   0.4181
Er9     Er     0.5819   0.6299   0.4181
Er10     Er     0.6299   0.5819   0.4181
Er11     Er     0.5819   0.5819   0.3701
V12     V     0.5819   0.4181   0.5339
V13     V     0.5819   0.4181   0.4661
Er14     Er     0.5819   0.4181   0.6299
Er15     Er     0.6299   0.4181   0.5819
Er16     Er     0.5819   0.3701   0.5819
V17     V     0.5819   0.5339   0.5819
V18     V     0.5819   0.4661   0.5819
V19     V     0.5819   0.5819   0.5339
V20     V     0.5819   0.5819   0.4661
V21     V     0.4661   0.4181   0.5819
V22     V     0.5339   0.4181   0.5819
Er23     Er     0.4181   0.4181   0.6299
Er24     Er     0.3701   0.4181   0.5819
Er25     Er     0.4181   0.3701   0.5819
V26     V     0.4661   0.5819   0.5819
V27     V     0.5339   0.5819   0.5819
V28     V     0.4181   0.5339   0.5819
V29     V     0.4181   0.4661   0.5819
Er30     Er     0.4181   0.6299   0.5819
Er31     Er     0.4181   0.5819   0.6299
Er32     Er     0.3701   0.5819   0.5819
V33     V     0.4661   0.5819   0.4181
V34     V     0.5339   0.5819   0.4181
V35     V     0.4181   0.5819   0.4661
V36     V     0.4181   0.5819   0.5339
Er37     Er     0.4181   0.6299   0.4181
Er38     Er     0.3701   0.5819   0.4181
Er39     Er     0.4181   0.5819   0.3701
V40     V     0.4661   0.4181   0.4181
V41     V     0.5339   0.4181   0.4181
V42     V     0.4181   0.4181   0.4661
V43     V     0.4181   0.4181   0.5339
V44     V     0.4181   0.4661   0.4181
V45     V     0.4181   0.5339   0.4181
Er46     Er     0.3701   0.4181   0.4181
Er47     Er     0.4181   0.4181   0.3701
Er48     Er     0.4181   0.3701   0.4181
V49     V     0.4181   0.9181   0.9661
V50     V     0.4181   0.9181   0.0339
Er51     Er     0.4181   0.9181   0.1299
Er52     Er     0.3701   0.9181   0.0819
Er53     Er     0.4181   0.8701   0.0819
V54     V     0.5339   0.9181   0.0819
V55     V     0.4661   0.9181   0.0819
V56     V     0.5819   0.9181   0.9661
V57     V     0.5819   0.9181   0.0339
Er58     Er     0.6299   0.9181   0.0819
Er59     Er     0.5819   0.9181   0.1299
Er60     Er     0.5819   0.8701   0.0819
Er61     Er     0.6299   0.9181   0.9181
Er62     Er     0.5819   0.9181   0.8701
Er63     Er     0.5819   0.8701   0.9181
V64     V     0.4661   0.9181   0.9181
V65     V     0.5339   0.9181   0.9181
Er66     Er     0.3701   0.9181   0.9181
Er67     Er     0.4181   0.9181   0.8701
Er68     Er     0.4181   0.8701   0.9181
V69     V     0.4181   0.9661   0.9181
V70     V     0.4181   0.0339   0.9181
Er71     Er     0.4181   0.1299   0.9181
Er72     Er     0.3701   0.0819   0.9181
Er73     Er     0.4181   0.0819   0.8701
V74     V     0.5339   0.0819   0.9181
V75     V     0.4661   0.0819   0.9181
V76     V     0.5819   0.9661   0.9181
V77     V     0.5819   0.0339   0.9181
Er78     Er     0.6299   0.0819   0.9181
Er79     Er     0.5819   0.1299   0.9181
Er80     Er     0.5819   0.0819   0.8701
V81     V     0.5819   0.9661   0.0819
V82     V     0.5819   0.0339   0.0819
V83     V     0.5819   0.0819   0.9661
V84     V     0.5819   0.0819   0.0339
Er85     Er     0.6299   0.0819   0.0819
Er86     Er     0.5819   0.1299   0.0819
Er87     Er     0.5819   0.0819   0.1299
V88     V     0.4661   0.0819   0.0819
V89     V     0.5339   0.0819   0.0819
V90     V     0.4181   0.9661   0.0819
V91     V     0.4181   0.0339   0.0819
V92     V     0.4181   0.0819   0.9661
V93     V     0.4181   0.0819   0.0339
Er94     Er     0.4181   0.1299   0.0819
Er95     Er     0.4181   0.0819   0.1299
Er96     Er     0.3701   0.0819   0.0819
V97     V     0.9181   0.5819   0.9661
V98     V     0.9181   0.5819   0.0339
Er99     Er     0.9181   0.6299   0.0819
Er100     Er     0.9181   0.5819   0.1299
Er101     Er     0.8701   0.5819   0.0819
V102     V     0.9181   0.4661   0.0819
V103     V     0.9181   0.5339   0.0819
V104     V     0.9181   0.4181   0.9661
V105     V     0.9181   0.4181   0.0339
Er106     Er     0.9181   0.4181   0.1299
Er107     Er     0.9181   0.3701   0.0819
Er108     Er     0.8701   0.4181   0.0819
Er109     Er     0.9181   0.3701   0.9181
Er110     Er     0.9181   0.4181   0.8701
Er111     Er     0.8701   0.4181   0.9181
V112     V     0.9181   0.5339   0.9181
V113     V     0.9181   0.4661   0.9181
Er114     Er     0.9181   0.6299   0.9181
Er115     Er     0.9181   0.5819   0.8701
Er116     Er     0.8701   0.5819   0.9181
V117     V     0.9661   0.4181   0.9181
V118     V     0.0339   0.4181   0.9181
Er119     Er     0.1299   0.4181   0.9181
Er120     Er     0.0819   0.3701   0.9181
Er121     Er     0.0819   0.4181   0.8701
V122     V     0.0819   0.5339   0.9181
V123     V     0.0819   0.4661   0.9181
V124     V     0.9661   0.5819   0.9181
V125     V     0.0339   0.5819   0.9181
Er126     Er     0.0819   0.6299   0.9181
Er127     Er     0.1299   0.5819   0.9181
Er128     Er     0.0819   0.5819   0.8701
V129     V     0.9661   0.4181   0.0819
V130     V     0.0339   0.4181   0.0819
V131     V     0.0819   0.4181   0.9661
V132     V     0.0819   0.4181   0.0339
Er133     Er     0.0819   0.4181   0.1299
Er134     Er     0.1299   0.4181   0.0819
Er135     Er     0.0819   0.3701   0.0819
V136     V     0.0819   0.5339   0.0819
V137     V     0.0819   0.4661   0.0819
V138     V     0.9661   0.5819   0.0819
V139     V     0.0339   0.5819   0.0819
V140     V     0.0819   0.5819   0.9661
V141     V     0.0819   0.5819   0.0339
Er142     Er     0.0819   0.6299   0.0819
Er143     Er     0.1299   0.5819   0.0819
Er144     Er     0.0819   0.5819   0.1299
V145     V     0.9661   0.9181   0.5819
V146     V     0.0339   0.9181   0.5819
Er147     Er     0.0819   0.9181   0.6299
Er148     Er     0.1299   0.9181   0.5819
Er149     Er     0.0819   0.8701   0.5819
V150     V     0.0819   0.9181   0.4661
V151     V     0.0819   0.9181   0.5339
V152     V     0.9661   0.9181   0.4181
V153     V     0.0339   0.9181   0.4181
Er154     Er     0.1299   0.9181   0.4181
Er155     Er     0.0819   0.9181   0.3701
Er156     Er     0.0819   0.8701   0.4181
Er157     Er     0.9181   0.9181   0.6299
Er158     Er     0.9181   0.8701   0.5819
Er159     Er     0.8701   0.9181   0.5819
V160     V     0.9181   0.9181   0.4661
V161     V     0.9181   0.9181   0.5339
Er162     Er     0.9181   0.9181   0.3701
Er163     Er     0.9181   0.8701   0.4181
Er164     Er     0.8701   0.9181   0.4181
V165     V     0.9181   0.9661   0.5819
V166     V     0.9181   0.0339   0.5819
Er167     Er     0.9181   0.0819   0.6299
Er168     Er     0.9181   0.1299   0.5819
Er169     Er     0.8701   0.0819   0.5819
V170     V     0.9181   0.0819   0.4661
V171     V     0.9181   0.0819   0.5339
V172     V     0.9181   0.9661   0.4181
V173     V     0.9181   0.0339   0.4181
Er174     Er     0.9181   0.1299   0.4181
Er175     Er     0.9181   0.0819   0.3701
Er176     Er     0.8701   0.0819   0.4181
V177     V     0.9661   0.0819   0.5819
V178     V     0.0339   0.0819   0.5819
V179     V     0.0819   0.9661   0.5819
V180     V     0.0819   0.0339   0.5819
Er181     Er     0.0819   0.0819   0.6299
Er182     Er     0.1299   0.0819   0.5819
Er183     Er     0.0819   0.1299   0.5819
V184     V     0.0819   0.0819   0.4661
V185     V     0.0819   0.0819   0.5339
V186     V     0.0819   0.9661   0.4181
V187     V     0.0819   0.0339   0.4181
V188     V     0.9661   0.0819   0.4181
V189     V     0.0339   0.0819   0.4181
Er190     Er     0.1299   0.0819   0.4181
Er191     Er     0.0819   0.1299   0.4181
Er192     Er     0.0819   0.0819   0.3701
Ti193     Ti     0.8033   0.4097   0.0903
Ti194     Ti     0.4097   0.8033   0.0903
Ti195     Ti     0.8033   0.0903   0.4097
Ti196     Ti     0.4097   0.0903   0.8033
Ti197     Ti     0.0903   0.4097   0.8033
Ti198     Ti     0.0903   0.8033   0.4097
Ti199     Ti     0.5903   0.8033   0.0903
Ti200     Ti     0.8033   0.5903   0.0903
Ti201     Ti     0.8033   0.0903   0.5903
Ti202     Ti     0.5903   0.0903   0.8033
Ti203     Ti     0.0903   0.8033   0.5903
Ti204     Ti     0.0903   0.5903   0.8033
Ti205     Ti     0.8033   0.9097   0.5903
Ti206     Ti     0.8033   0.9097   0.4097
Ti207     Ti     0.9097   0.8033   0.4097
Ti208     Ti     0.9097   0.8033   0.5903
Ti209     Ti     0.4097   0.8033   0.9097
Ti210     Ti     0.8033   0.5903   0.9097
Ti211     Ti     0.5903   0.8033   0.9097
Ti212     Ti     0.8033   0.4097   0.9097
Ti213     Ti     0.5903   0.9097   0.8033
Ti214     Ti     0.4097   0.9097   0.8033
Ti215     Ti     0.9097   0.4097   0.8033
Ti216     Ti     0.9097   0.5903   0.8033
Ti217     Ti     0.4097   0.4097   0.6967
Ti218     Ti     0.4097   0.4097   0.3033
Ti219     Ti     0.4097   0.3033   0.4097
Ti220     Ti     0.4097   0.6967   0.4097
Ti221     Ti     0.6967   0.4097   0.4097
Ti222     Ti     0.3033   0.4097   0.4097
Ti223     Ti     0.4097   0.1967   0.0903
Ti224     Ti     0.1967   0.4097   0.0903
Ti225     Ti     0.1967   0.0903   0.4097
Ti226     Ti     0.4097   0.0903   0.1967
Ti227     Ti     0.0903   0.1967   0.4097
Ti228     Ti     0.0903   0.4097   0.1967
Ti229     Ti     0.6967   0.0903   0.0903
Ti230     Ti     0.0903   0.3033   0.0903
Ti231     Ti     0.0903   0.6967   0.0903
Ti232     Ti     0.3033   0.0903   0.0903
Ti233     Ti     0.0903   0.0903   0.6967
Ti234     Ti     0.0903   0.0903   0.3033
Ti235     Ti     0.1967   0.5903   0.0903
Ti236     Ti     0.5903   0.1967   0.0903
Ti237     Ti     0.4097   0.5903   0.6967
Ti238     Ti     0.5903   0.5903   0.6967
Ti239     Ti     0.5903   0.4097   0.6967
Ti240     Ti     0.5903   0.4097   0.3033
Ti241     Ti     0.4097   0.5903   0.3033
Ti242     Ti     0.5903   0.5903   0.3033
Ti243     Ti     0.1967   0.0903   0.5903
Ti244     Ti     0.4097   0.6967   0.5903
Ti245     Ti     0.5903   0.6967   0.4097
Ti246     Ti     0.5903   0.3033   0.5903
Ti247     Ti     0.5903   0.3033   0.4097
Ti248     Ti     0.5903   0.6967   0.5903
Ti249     Ti     0.4097   0.3033   0.5903
Ti250     Ti     0.5903   0.0903   0.1967
Ti251     Ti     0.6967   0.5903   0.5903
Ti252     Ti     0.3033   0.4097   0.5903
Ti253     Ti     0.3033   0.5903   0.4097
Ti254     Ti     0.6967   0.5903   0.4097
Ti255     Ti     0.0903   0.1967   0.5903
Ti256     Ti     0.6967   0.4097   0.5903
Ti257     Ti     0.3033   0.5903   0.5903
Ti258     Ti     0.0903   0.5903   0.1967
Ti259     Ti     0.1967   0.4097   0.9097
Ti260     Ti     0.5903   0.1967   0.9097
Ti261     Ti     0.4097   0.1967   0.9097
Ti262     Ti     0.1967   0.5903   0.9097
Ti263     Ti     0.1967   0.9097   0.4097
Ti264     Ti     0.1967   0.9097   0.5903
Ti265     Ti     0.4097   0.9097   0.1967
Ti266     Ti     0.5903   0.9097   0.1967
Ti267     Ti     0.9097   0.1967   0.5903
Ti268     Ti     0.9097   0.1967   0.4097
Ti269     Ti     0.9097   0.4097   0.1967
Ti270     Ti     0.9097   0.5903   0.1967
Ti271     Ti     0.3033   0.9097   0.0903
Ti272     Ti     0.9097   0.6967   0.0903
Ti273     Ti     0.3033   0.0903   0.9097
Ti274     Ti     0.0903   0.6967   0.9097
Ti275     Ti     0.6967   0.0903   0.9097
Ti276     Ti     0.0903   0.3033   0.9097
Ti277     Ti     0.6967   0.9097   0.0903
Ti278     Ti     0.9097   0.3033   0.0903
Ti279     Ti     0.9097   0.0903   0.6967
Ti280     Ti     0.0903   0.9097   0.6967
Ti281     Ti     0.0903   0.9097   0.3033
Ti282     Ti     0.9097   0.0903   0.3033
Ti283     Ti     0.6967   0.9097   0.9097
Ti284     Ti     0.9097   0.3033   0.9097
Ti285     Ti     0.9097   0.6967   0.9097
Ti286     Ti     0.3033   0.9097   0.9097
Ti287     Ti     0.9097   0.9097   0.6967
Ti288     Ti     0.9097   0.9097   0.3033
S289     S     0.9265   0.2454   0.8786
S290     S     0.8786   0.2454   0.9265
S291     S     0.2454   0.8786   0.9265
S292     S     0.2454   0.9265   0.8786
S293     S     0.8786   0.9265   0.2454
S294     S     0.9265   0.8786   0.2454
S295     S     0.7546   0.9265   0.8786
S296     S     0.7546   0.8786   0.9265
S297     S     0.8786   0.7546   0.9265
S298     S     0.9265   0.7546   0.8786
S299     S     0.9265   0.8786   0.7546
S300     S     0.8786   0.9265   0.7546
S301     S     0.0735   0.7546   0.8786
S302     S     0.1214   0.7546   0.9265
H303     H     0.1681   0.7839   0.9661
H304     H     0.1681   0.7839   0.0339
Ce305     Ce     0.226   0.774   0.0
H306     H     0.2161   0.8319   0.9661
H307     H     0.2161   0.8319   0.0339
S308     S     0.8786   0.7546   0.0735
S309     S     0.9265   0.7546   0.1214
S310     S     0.1214   0.7546   0.0735
S311     S     0.0735   0.7546   0.1214
H312     H     0.9661   0.7839   0.1681
H313     H     0.0339   0.7839   0.1681
Ce314     Ce     0.0   0.774   0.226
H315     H     0.9661   0.8319   0.2161
H316     H     0.0339   0.8319   0.2161
H317     H     0.8319   0.7839   0.9661
H318     H     0.8319   0.7839   0.0339
Ce319     Ce     0.774   0.774   0.0
H320     H     0.7839   0.8319   0.9661
H321     H     0.7839   0.8319   0.0339
S322     S     0.7546   0.8786   0.0735
S323     S     0.7546   0.9265   0.1214
S324     S     0.7546   0.0735   0.1214
S325     S     0.7546   0.1214   0.0735
H326     H     0.7839   0.9661   0.1681
H327     H     0.7839   0.0339   0.1681
Ce328     Ce     0.774   0.0   0.226
H329     H     0.8319   0.9661   0.2161
H330     H     0.8319   0.0339   0.2161
S331     S     0.7546   0.0735   0.8786
S332     S     0.7546   0.1214   0.9265
H333     H     0.7839   0.1681   0.9661
H334     H     0.7839   0.1681   0.0339
Ce335     Ce     0.774   0.226   0.0
H336     H     0.8319   0.2161   0.9661
H337     H     0.8319   0.2161   0.0339
H338     H     0.7839   0.9661   0.8319
H339     H     0.7839   0.0339   0.8319
Ce340     Ce     0.774   0.0   0.774
H341     H     0.8319   0.9661   0.7839
H342     H     0.8319   0.0339   0.7839
H343     H     0.9661   0.8319   0.7839
H344     H     0.0339   0.8319   0.7839
Ce345     Ce     0.0   0.774   0.774
H346     H     0.9661   0.7839   0.8319
H347     H     0.0339   0.7839   0.8319
S348     S     0.8786   0.0735   0.7546
S349     S     0.9265   0.1214   0.7546
H350     H     0.9661   0.1681   0.7839
H351     H     0.0339   0.1681   0.7839
Ce352     Ce     0.0   0.226   0.774
H353     H     0.9661   0.2161   0.8319
H354     H     0.0339   0.2161   0.8319
S355     S     0.0735   0.1214   0.7546
S356     S     0.1214   0.0735   0.7546
S357     S     0.0735   0.8786   0.7546
S358     S     0.1214   0.9265   0.7546
H359     H     0.1681   0.9661   0.7839
H360     H     0.1681   0.0339   0.7839
Ce361     Ce     0.226   0.0   0.774
H362     H     0.2161   0.9661   0.8319
H363     H     0.2161   0.0339   0.8319
S364     S     0.0735   0.2454   0.8786
S365     S     0.1214   0.2454   0.9265
S366     S     0.2454   0.8786   0.0735
S367     S     0.2454   0.9265   0.1214
S368     S     0.2454   0.0735   0.8786
S369     S     0.2454   0.1214   0.9265
S370     S     0.8786   0.2454   0.0735
S371     S     0.9265   0.2454   0.1214
S372     S     0.0735   0.2454   0.1214
S373     S     0.1214   0.2454   0.0735
H374     H     0.1681   0.2161   0.9661
H375     H     0.1681   0.2161   0.0339
Ce376     Ce     0.226   0.226   0.0
H377     H     0.2161   0.1681   0.9661
H378     H     0.2161   0.1681   0.0339
S379     S     0.2454   0.1214   0.0735
S380     S     0.2454   0.0735   0.1214
S381     S     0.0735   0.8786   0.2454
S382     S     0.1214   0.9265   0.2454
H383     H     0.2161   0.9661   0.1681
H384     H     0.2161   0.0339   0.1681
Ce385     Ce     0.226   0.0   0.226
H386     H     0.1681   0.9661   0.2161
H387     H     0.1681   0.0339   0.2161
S388     S     0.1214   0.0735   0.2454
S389     S     0.0735   0.1214   0.2454
S390     S     0.8786   0.0735   0.2454
S391     S     0.9265   0.1214   0.2454
H392     H     0.9661   0.2161   0.1681
H393     H     0.0339   0.2161   0.1681
Ce394     Ce     0.0   0.226   0.226
H395     H     0.9661   0.1681   0.2161
H396     H     0.0339   0.1681   0.2161
S397     S     0.4265   0.8786   0.2546
S398     S     0.3786   0.9265   0.2546
S399     S     0.2546   0.8786   0.4265
S400     S     0.2546   0.9265   0.3786
S401     S     0.4265   0.1214   0.2546
S402     S     0.3786   0.0735   0.2546
S403     S     0.2546   0.1214   0.4265
S404     S     0.2546   0.0735   0.3786
H405     H     0.3319   0.9661   0.2839
H406     H     0.3319   0.0339   0.2839
Ce407     Ce     0.274   0.0   0.274
H408     H     0.2839   0.9661   0.3319
H409     H     0.2839   0.0339   0.3319
S410     S     0.2546   0.0735   0.6214
S411     S     0.2546   0.1214   0.5735
S412     S     0.3786   0.2454   0.5735
S413     S     0.4265   0.2454   0.6214
H414     H     0.2839   0.1681   0.5339
H415     H     0.2839   0.1681   0.4661
Ce416     Ce     0.274   0.226   0.5
H417     H     0.3319   0.2161   0.4661
H418     H     0.3319   0.2161   0.5339
S419     S     0.3786   0.2454   0.4265
S420     S     0.4265   0.2454   0.3786
S421     S     0.6214   0.0735   0.2546
S422     S     0.5735   0.1214   0.2546
S423     S     0.5735   0.2454   0.3786
S424     S     0.6214   0.2454   0.4265
H425     H     0.4661   0.1681   0.2839
H426     H     0.5339   0.1681   0.2839
Ce427     Ce     0.5   0.226   0.274
H428     H     0.5339   0.2161   0.3319
H429     H     0.4661   0.2161   0.3319
S430     S     0.2546   0.8786   0.5735
S431     S     0.2546   0.9265   0.6214
S432     S     0.5735   0.8786   0.2546
S433     S     0.6214   0.9265   0.2546
S434     S     0.3786   0.7546   0.5735
S435     S     0.4265   0.7546   0.6214
H436     H     0.3319   0.7839   0.4661
H437     H     0.3319   0.7839   0.5339
Ce438     Ce     0.274   0.774   0.5
H439     H     0.2839   0.8319   0.4661
H440     H     0.2839   0.8319   0.5339
S441     S     0.3786   0.7546   0.4265
S442     S     0.4265   0.7546   0.3786
S443     S     0.6214   0.7546   0.4265
S444     S     0.5735   0.7546   0.3786
H445     H     0.5339   0.7839   0.3319
H446     H     0.4661   0.7839   0.3319
Ce447     Ce     0.5   0.774   0.274
H448     H     0.5339   0.8319   0.2839
H449     H     0.4661   0.8319   0.2839
S450     S     0.5735   0.2454   0.6214
S451     S     0.6214   0.2454   0.5735
S452     S     0.6214   0.7546   0.5735
S453     S     0.5735   0.7546   0.6214
S454     S     0.5735   0.8786   0.7454
S455     S     0.6214   0.9265   0.7454
H456     H     0.5339   0.7839   0.6681
H457     H     0.4661   0.7839   0.6681
Ce458     Ce     0.5   0.774   0.726
H459     H     0.4661   0.8319   0.7161
H460     H     0.5339   0.8319   0.7161
S461     S     0.4265   0.8786   0.7454
S462     S     0.3786   0.9265   0.7454
S463     S     0.3786   0.0735   0.7454
S464     S     0.4265   0.1214   0.7454
H465     H     0.3319   0.9661   0.7161
H466     H     0.3319   0.0339   0.7161
Ce467     Ce     0.274   0.0   0.726
H468     H     0.2839   0.9661   0.6681
H469     H     0.2839   0.0339   0.6681
S470     S     0.6214   0.0735   0.7454
S471     S     0.5735   0.1214   0.7454
H472     H     0.5339   0.1681   0.7161
H473     H     0.4661   0.1681   0.7161
Ce474     Ce     0.5   0.226   0.726
H475     H     0.4661   0.2161   0.6681
H476     H     0.5339   0.2161   0.6681
H477     H     0.6681   0.9661   0.7161
H478     H     0.6681   0.0339   0.7161
Ce479     Ce     0.726   0.0   0.726
H480     H     0.7161   0.9661   0.6681
H481     H     0.7161   0.0339   0.6681
S482     S     0.7454   0.8786   0.5735
S483     S     0.7454   0.9265   0.6214
H484     H     0.7161   0.8319   0.5339
H485     H     0.7161   0.8319   0.4661
Ce486     Ce     0.726   0.774   0.5
H487     H     0.6681   0.7839   0.4661
H488     H     0.6681   0.7839   0.5339
S489     S     0.7454   0.8786   0.4265
S490     S     0.7454   0.9265   0.3786
S491     S     0.7454   0.1214   0.4265
S492     S     0.7454   0.0735   0.3786
H493     H     0.7161   0.9661   0.3319
H494     H     0.7161   0.0339   0.3319
Ce495     Ce     0.726   0.0   0.274
H496     H     0.6681   0.9661   0.2839
H497     H     0.6681   0.0339   0.2839
S498     S     0.7454   0.0735   0.6214
S499     S     0.7454   0.1214   0.5735
H500     H     0.7161   0.1681   0.4661
H501     H     0.7161   0.1681   0.5339
Ce502     Ce     0.726   0.226   0.5
H503     H     0.6681   0.2161   0.5339
H504     H     0.6681   0.2161   0.4661
S505     S     0.2546   0.4265   0.8786
S506     S     0.2546   0.3786   0.9265
S507     S     0.4265   0.2546   0.8786
S508     S     0.3786   0.2546   0.9265
S509     S     0.2546   0.4265   0.1214
S510     S     0.2546   0.3786   0.0735
S511     S     0.4265   0.2546   0.1214
S512     S     0.3786   0.2546   0.0735
H513     H     0.2839   0.3319   0.9661
H514     H     0.2839   0.3319   0.0339
Ce515     Ce     0.274   0.274   0.0
H516     H     0.3319   0.2839   0.9661
H517     H     0.3319   0.2839   0.0339
S518     S     0.6214   0.2546   0.0735
S519     S     0.5735   0.2546   0.1214
S520     S     0.5735   0.3786   0.2454
S521     S     0.6214   0.4265   0.2454
H522     H     0.5339   0.2839   0.1681
H523     H     0.4661   0.2839   0.1681
Ce524     Ce     0.5   0.274   0.226
H525     H     0.4661   0.3319   0.2161
H526     H     0.5339   0.3319   0.2161
S527     S     0.4265   0.3786   0.2454
S528     S     0.3786   0.4265   0.2454
S529     S     0.2546   0.6214   0.0735
S530     S     0.2546   0.5735   0.1214
S531     S     0.3786   0.5735   0.2454
S532     S     0.4265   0.6214   0.2454
H533     H     0.2839   0.4661   0.1681
H534     H     0.2839   0.5339   0.1681
Ce535     Ce     0.274   0.5   0.226
H536     H     0.3319   0.5339   0.2161
H537     H     0.3319   0.4661   0.2161
S538     S     0.5735   0.2546   0.8786
S539     S     0.6214   0.2546   0.9265
S540     S     0.2546   0.5735   0.8786
S541     S     0.2546   0.6214   0.9265
S542     S     0.5735   0.3786   0.7546
S543     S     0.6214   0.4265   0.7546
H544     H     0.4661   0.3319   0.7839
H545     H     0.5339   0.3319   0.7839
Ce546     Ce     0.5   0.274   0.774
H547     H     0.4661   0.2839   0.8319
H548     H     0.5339   0.2839   0.8319
S549     S     0.4265   0.3786   0.7546
S550     S     0.3786   0.4265   0.7546
S551     S     0.4265   0.6214   0.7546
S552     S     0.3786   0.5735   0.7546
H553     H     0.3319   0.5339   0.7839
H554     H     0.3319   0.4661   0.7839
Ce555     Ce     0.274   0.5   0.774
H556     H     0.2839   0.5339   0.8319
H557     H     0.2839   0.4661   0.8319
S558     S     0.6214   0.5735   0.2454
S559     S     0.5735   0.6214   0.2454
S560     S     0.5735   0.6214   0.7546
S561     S     0.6214   0.5735   0.7546
S562     S     0.5735   0.7454   0.8786
S563     S     0.6214   0.7454   0.9265
H564     H     0.4661   0.6681   0.7839
H565     H     0.5339   0.6681   0.7839
Ce566     Ce     0.5   0.726   0.774
H567     H     0.4661   0.7161   0.8319
H568     H     0.5339   0.7161   0.8319
S569     S     0.4265   0.7454   0.8786
S570     S     0.3786   0.7454   0.9265
S571     S     0.3786   0.7454   0.0735
S572     S     0.4265   0.7454   0.1214
H573     H     0.3319   0.7161   0.9661
H574     H     0.3319   0.7161   0.0339
Ce575     Ce     0.274   0.726   0.0
H576     H     0.2839   0.6681   0.9661
H577     H     0.2839   0.6681   0.0339
S578     S     0.6214   0.7454   0.0735
S579     S     0.5735   0.7454   0.1214
H580     H     0.5339   0.7161   0.1681
H581     H     0.4661   0.7161   0.1681
Ce582     Ce     0.5   0.726   0.226
H583     H     0.5339   0.6681   0.2161
H584     H     0.4661   0.6681   0.2161
H585     H     0.6681   0.7161   0.9661
H586     H     0.6681   0.7161   0.0339
Ce587     Ce     0.726   0.726   0.0
H588     H     0.7161   0.6681   0.9661
H589     H     0.7161   0.6681   0.0339
S590     S     0.7454   0.5735   0.8786
S591     S     0.7454   0.6214   0.9265
H592     H     0.7161   0.4661   0.8319
H593     H     0.7161   0.5339   0.8319
Ce594     Ce     0.726   0.5   0.774
H595     H     0.6681   0.5339   0.7839
H596     H     0.6681   0.4661   0.7839
S597     S     0.7454   0.4265   0.8786
S598     S     0.7454   0.3786   0.9265
S599     S     0.7454   0.4265   0.1214
S600     S     0.7454   0.3786   0.0735
H601     H     0.7161   0.3319   0.9661
H602     H     0.7161   0.3319   0.0339
Ce603     Ce     0.726   0.274   0.0
H604     H     0.6681   0.2839   0.9661
H605     H     0.6681   0.2839   0.0339
S606     S     0.7454   0.6214   0.0735
S607     S     0.7454   0.5735   0.1214
H608     H     0.7161   0.4661   0.1681
H609     H     0.7161   0.5339   0.1681
Ce610     Ce     0.726   0.5   0.226
H611     H     0.6681   0.4661   0.2161
H612     H     0.6681   0.5339   0.2161
S613     S     0.8786   0.2546   0.4265
S614     S     0.9265   0.2546   0.3786
S615     S     0.8786   0.4265   0.2546
S616     S     0.9265   0.3786   0.2546
S617     S     0.1214   0.2546   0.4265
S618     S     0.0735   0.2546   0.3786
S619     S     0.1214   0.4265   0.2546
S620     S     0.0735   0.3786   0.2546
H621     H     0.9661   0.2839   0.3319
H622     H     0.0339   0.2839   0.3319
Ce623     Ce     0.0   0.274   0.274
H624     H     0.9661   0.3319   0.2839
H625     H     0.0339   0.3319   0.2839
S626     S     0.0735   0.6214   0.2546
S627     S     0.1214   0.5735   0.2546
S628     S     0.2454   0.5735   0.3786
S629     S     0.2454   0.6214   0.4265
H630     H     0.1681   0.5339   0.2839
H631     H     0.1681   0.4661   0.2839
Ce632     Ce     0.226   0.5   0.274
H633     H     0.2161   0.4661   0.3319
H634     H     0.2161   0.5339   0.3319
S635     S     0.2454   0.4265   0.3786
S636     S     0.2454   0.3786   0.4265
S637     S     0.0735   0.2546   0.6214
S638     S     0.1214   0.2546   0.5735
S639     S     0.2454   0.3786   0.5735
S640     S     0.2454   0.4265   0.6214
H641     H     0.1681   0.2839   0.4661
H642     H     0.1681   0.2839   0.5339
Ce643     Ce     0.226   0.274   0.5
H644     H     0.2161   0.3319   0.5339
H645     H     0.2161   0.3319   0.4661
S646     S     0.8786   0.5735   0.2546
S647     S     0.9265   0.6214   0.2546
S648     S     0.8786   0.2546   0.5735
S649     S     0.9265   0.2546   0.6214
S650     S     0.7546   0.5735   0.3786
S651     S     0.7546   0.6214   0.4265
H652     H     0.7839   0.4661   0.3319
H653     H     0.7839   0.5339   0.3319
Ce654     Ce     0.774   0.5   0.274
H655     H     0.8319   0.4661   0.2839
H656     H     0.8319   0.5339   0.2839
S657     S     0.7546   0.4265   0.3786
S658     S     0.7546   0.3786   0.4265
S659     S     0.7546   0.4265   0.6214
S660     S     0.7546   0.3786   0.5735
H661     H     0.7839   0.3319   0.5339
H662     H     0.7839   0.3319   0.4661
Ce663     Ce     0.774   0.274   0.5
H664     H     0.8319   0.2839   0.5339
H665     H     0.8319   0.2839   0.4661
S666     S     0.2454   0.6214   0.5735
S667     S     0.2454   0.5735   0.6214
S668     S     0.7546   0.5735   0.6214
S669     S     0.7546   0.6214   0.5735
S670     S     0.8786   0.5735   0.7454
S671     S     0.9265   0.6214   0.7454
H672     H     0.7839   0.4661   0.6681
H673     H     0.7839   0.5339   0.6681
Ce674     Ce     0.774   0.5   0.726
H675     H     0.8319   0.4661   0.7161
H676     H     0.8319   0.5339   0.7161
S677     S     0.8786   0.4265   0.7454
S678     S     0.9265   0.3786   0.7454
S679     S     0.0735   0.3786   0.7454
S680     S     0.1214   0.4265   0.7454
H681     H     0.9661   0.3319   0.7161
H682     H     0.0339   0.3319   0.7161
Ce683     Ce     0.0   0.274   0.726
H684     H     0.9661   0.2839   0.6681
H685     H     0.0339   0.2839   0.6681
S686     S     0.0735   0.6214   0.7454
S687     S     0.1214   0.5735   0.7454
H688     H     0.1681   0.5339   0.7161
H689     H     0.1681   0.4661   0.7161
Ce690     Ce     0.226   0.5   0.726
H691     H     0.2161   0.5339   0.6681
H692     H     0.2161   0.4661   0.6681
H693     H     0.9661   0.6681   0.7161
H694     H     0.0339   0.6681   0.7161
Ce695     Ce     0.0   0.726   0.726
H696     H     0.9661   0.7161   0.6681
H697     H     0.0339   0.7161   0.6681
S698     S     0.8786   0.7454   0.5735
S699     S     0.9265   0.7454   0.6214
H700     H     0.7839   0.6681   0.5339
H701     H     0.7839   0.6681   0.4661
Ce702     Ce     0.774   0.726   0.5
H703     H     0.8319   0.7161   0.4661
H704     H     0.8319   0.7161   0.5339
S705     S     0.8786   0.7454   0.4265
S706     S     0.9265   0.7454   0.3786
S707     S     0.1214   0.7454   0.4265
S708     S     0.0735   0.7454   0.3786
H709     H     0.9661   0.7161   0.3319
H710     H     0.0339   0.7161   0.3319
Ce711     Ce     0.0   0.726   0.274
H712     H     0.9661   0.6681   0.2839
H713     H     0.0339   0.6681   0.2839
S714     S     0.0735   0.7454   0.6214
S715     S     0.1214   0.7454   0.5735
H716     H     0.1681   0.7161   0.4661
H717     H     0.1681   0.7161   0.5339
Ce718     Ce     0.226   0.726   0.5
H719     H     0.2161   0.6681   0.4661
H720     H     0.2161   0.6681   0.5339
loop_
_geom_bond_atom_site_label_1
_geom_bond_atom_site_label_2
_geom_bond_distance
_geom_bond_site_symmetry_2
_ccdc_geom_bond_type
Er1     V17    10.0   .     S
Er1     V27    10.0   .     S
Er1     Er3    9.999   .     S
Er1     Er2    9.999   .     S
Er1     Ti238    10.0   .     S
Er2     V27    10.0   .     S
Er2     V19    10.0   .     S
Er2     Er3    9.999   .     S
Er2     Ti248    10.0   .     S
Er3     V19    10.0   .     S
Er3     V17    10.0   .     S
Er3     Ti251    10.0   .     S
Er4     Er5    9.999   .     S
Er4     Er6    9.999   .     S
Er4     V13    10.0   .     S
Er4     V8    10.0   .     S
Er4     Ti221    10.0   .     S
Er5     V41    10.0   .     S
Er5     Er6    9.999   .     S
Er5     V13    10.0   .     S
Er5     Ti247    10.0   .     S
Er6     V8    10.0   .     S
Er6     V41    10.0   .     S
Er6     Ti240    10.0   .     S
V7     V8    9.999   .     S
V7     Er10    10.0   .     S
V7     Er11    10.0   .     S
V7     V20    10.001   .     S
V7     V34    10.001   .     S
V8     V13    10.001   .     S
V8     V41    10.001   .     S
Er9     Er11    9.999   .     S
Er9     V20    10.0   .     S
Er9     V34    10.0   .     S
Er9     Er10    9.999   .     S
Er9     Ti245    10.0   .     S
Er10     Er11    9.999   .     S
Er10     V20    10.0   .     S
Er10     Ti254    10.0   .     S
Er11     V34    10.0   .     S
Er11     Ti242    10.0   .     S
V12     V13    9.999   .     S
V12     Er15    10.0   .     S
V12     Er16    10.0   .     S
V12     V18    10.001   .     S
V12     V22    10.001   .     S
V13     V41    10.001   .     S
Er14     Er16    9.999   .     S
Er14     V22    10.0   .     S
Er14     V18    10.0   .     S
Er14     Er15    9.999   .     S
Er14     Ti239    10.0   .     S
Er15     Er16    9.999   .     S
Er15     V18    10.0   .     S
Er15     Ti256    10.0   .     S
Er16     V22    10.0   .     S
Er16     Ti246    10.0   .     S
V17     V18    9.999   .     S
V17     V19    10.001   .     S
V17     V27    10.001   .     S
V18     V22    10.001   .     S
V19     V20    9.999   .     S
V19     V27    10.001   .     S
V20     V34    10.001   .     S
V21     V22    9.999   .     S
V21     Er23    10.0   .     S
V21     Er25    10.0   .     S
V21     V43    10.001   .     S
V21     V29    10.001   .     S
Er23     Er24    9.999   .     S
Er23     Er25    9.999   .     S
Er23     V29    10.0   .     S
Er23     Ti217    10.0   .     S
Er24     V43    10.0   .     S
Er24     Er25    9.999   .     S
Er24     V29    10.0   .     S
Er24     Ti252    10.0   .     S
Er25     V43    10.0   .     S
Er25     Ti249    10.0   .     S
V26     V27    9.999   .     S
V26     Er30    10.0   .     S
V26     Er31    10.0   .     S
V26     V36    10.001   .     S
V26     V28    10.001   .     S
V28     V29    9.999   .     S
V28     Er31    10.0   .     S
V28     Er32    10.0   .     S
V28     V36    10.001   .     S
V29     V43    10.001   .     S
Er30     Er32    9.999   .     S
Er30     V36    10.0   .     S
Er30     Er31    9.999   .     S
Er30     Ti244    10.0   .     S
Er31     Er32    9.999   .     S
Er31     Ti237    10.0   .     S
Er32     V36    10.0   .     S
Er32     Ti257    10.0   .     S
V33     V34    9.999   .     S
V33     Er37    10.0   .     S
V33     Er39    10.0   .     S
V33     V35    10.001   .     S
V33     V45    10.001   .     S
V35     V36    9.999   .     S
V35     Er37    10.0   .     S
V35     Er38    10.0   .     S
V35     V45    10.001   .     S
Er37     Er38    9.999   .     S
Er37     Er39    9.999   .     S
Er37     Ti220    10.0   .     S
Er38     Er39    9.999   .     S
Er38     V45    10.0   .     S
Er38     Ti253    10.0   .     S
Er39     V45    10.0   .     S
Er39     Ti241    10.0   .     S
V40     V41    9.999   .     S
V40     Er48    10.0   .     S
V40     Er47    10.0   .     S
V40     V42    10.001   .     S
V40     V44    10.001   .     S
V42     V43    9.999   .     S
V42     Er46    10.0   .     S
V42     Er48    10.0   .     S
V42     V44    10.001   .     S
V44     V45    9.999   .     S
V44     Er46    10.0   .     S
V44     Er47    10.0   .     S
Er46     Er47    9.999   .     S
Er46     Er48    9.999   .     S
Er46     Ti222    10.0   .     S
Er47     Er48    9.999   .     S
Er47     Ti218    10.0   .     S
Er48     Ti219    10.0   .     S
V49     V50    9.999   1_556     S
V49     Er66    10.0   .     S
V49     Er68    10.0   .     S
V49     V69    10.001   .     S
V49     V64    10.001   .     S
V50     V49    9.999   1_554     S
V50     Er52    10.0   .     S
V50     Er53    10.0   .     S
V50     V90    10.001   .     S
V50     V55    10.001   .     S
Er51     Er52    9.999   .     S
Er51     Er53    9.999   .     S
Er51     V90    10.0   .     S
Er51     V55    10.0   .     S
Er51     Ti265    10.0   .     S
Er52     Er53    9.999   .     S
Er52     V90    10.0   .     S
Er52     Ti271    10.0   .     S
Er53     V55    10.0   .     S
Er53     Ti194    10.0   .     S
V54     V55    9.999   .     S
V54     Er59    10.0   .     S
V54     Er60    10.0   .     S
V54     V57    10.001   .     S
V54     V81    10.001   .     S
V55     V90    10.001   .     S
V56     V57    9.999   1_556     S
V56     Er61    10.0   .     S
V56     Er63    10.0   .     S
V56     V76    10.001   .     S
V56     V65    10.001   .     S
V57     V56    9.999   1_554     S
V57     Er58    10.0   .     S
V57     Er60    10.0   .     S
V57     V81    10.001   .     S
Er58     Er60    9.999   .     S
Er58     V81    10.0   .     S
Er58     Er59    9.999   .     S
Er58     Ti277    10.0   .     S
Er59     Er60    9.999   .     S
Er59     V81    10.0   .     S
Er59     Ti266    10.0   .     S
Er60     Ti199    10.0   .     S
Er61     Er63    9.999   .     S
Er61     Er62    9.999   .     S
Er61     V76    10.0   .     S
Er61     Ti283    10.0   .     S
Er62     V76    10.0   .     S
Er62     Er63    9.999   .     S
Er62     V65    10.0   .     S
Er62     Ti213    10.0   .     S
Er63     V65    10.0   .     S
Er63     Ti211    10.0   .     S
V64     V65    9.999   .     S
V64     Er67    10.0   .     S
V64     Er68    10.0   .     S
V64     V69    10.001   .     S
V65     V76    10.001   .     S
Er66     V69    10.0   .     S
Er66     Er67    9.999   .     S
Er66     Er68    9.999   .     S
Er66     Ti286    10.0   .     S
Er67     Er68    9.999   .     S
Er67     V69    10.0   .     S
Er67     Ti214    10.0   .     S
Er68     Ti209    10.0   .     S
V69     V70    9.999   1_565     S
V70     V69    9.999   1_545     S
V70     Er72    10.0   .     S
V70     Er73    10.0   .     S
V70     V92    10.001   .     S
V70     V75    10.001   .     S
Er71     Er72    9.999   .     S
Er71     Er73    9.999   .     S
Er71     V75    10.0   .     S
Er71     V92    10.0   .     S
Er71     Ti261    10.0   .     S
Er72     Er73    9.999   .     S
Er72     V92    10.0   .     S
Er72     Ti273    10.0   .     S
Er73     V75    10.0   .     S
Er73     Ti196    10.0   .     S
V74     V75    9.999   .     S
V74     Er79    10.0   .     S
V74     Er80    10.0   .     S
V74     V77    10.001   .     S
V74     V83    10.001   .     S
V75     V92    10.001   .     S
V76     V77    9.999   1_565     S
V77     V76    9.999   1_545     S
V77     Er78    10.0   .     S
V77     Er80    10.0   .     S
V77     V83    10.001   .     S
Er78     Er80    9.999   .     S
Er78     V83    10.0   .     S
Er78     Er79    9.999   .     S
Er78     Ti275    10.0   .     S
Er79     Er80    9.999   .     S
Er79     V83    10.0   .     S
Er79     Ti260    10.0   .     S
Er80     Ti202    10.0   .     S
V81     V82    9.999   1_565     S
V82     V81    9.999   1_545     S
V82     Er85    10.0   .     S
V82     Er87    10.0   .     S
V82     V84    10.001   .     S
V82     V89    10.001   .     S
V83     V84    9.999   1_556     S
V84     V83    9.999   1_554     S
V84     Er85    10.0   .     S
V84     Er86    10.0   .     S
V84     V89    10.001   .     S
Er85     Er86    9.999   .     S
Er85     Er87    9.999   .     S
Er85     Ti229    10.0   .     S
Er86     V89    10.0   .     S
Er86     Er87    9.999   .     S
Er86     Ti236    10.0   .     S
Er87     V89    10.0   .     S
Er87     Ti250    10.0   .     S
V88     V89    9.999   .     S
V88     Er94    10.0   .     S
V88     Er95    10.0   .     S
V88     V93    10.001   .     S
V88     V91    10.001   .     S
V90     V91    9.999   1_565     S
V91     V90    9.999   1_545     S
V91     Er96    10.0   .     S
V91     Er95    10.0   .     S
V91     V93    10.001   .     S
V92     V93    9.999   1_556     S
V93     V92    9.999   1_554     S
V93     Er96    10.0   .     S
V93     Er94    10.0   .     S
Er94     Er96    9.999   .     S
Er94     Er95    9.999   .     S
Er94     Ti223    10.0   .     S
Er95     Er96    9.999   .     S
Er95     Ti226    10.0   .     S
Er96     Ti232    10.0   .     S
V97     V98    9.999   1_556     S
V97     Er114    10.0   .     S
V97     Er116    10.0   .     S
V97     V124    10.001   .     S
V97     V112    10.001   .     S
V98     V97    9.999   1_554     S
V98     Er99    10.0   .     S
V98     Er101    10.0   .     S
V98     V138    10.001   .     S
V98     V103    10.001   .     S
Er99     Er101    9.999   .     S
Er99     V138    10.0   .     S
Er99     Er100    9.999   .     S
Er99     Ti272    10.0   .     S
Er100     Er101    9.999   .     S
Er100     V138    10.0   .     S
Er100     V103    10.0   .     S
Er100     Ti270    10.0   .     S
Er101     V103    10.0   .     S
Er101     Ti200    10.0   .     S
V102     V103    9.999   .     S
V102     Er106    10.0   .     S
V102     Er108    10.0   .     S
V102     V105    10.001   .     S
V102     V129    10.001   .     S
V103     V138    10.001   .     S
V104     V105    9.999   1_556     S
V104     Er109    10.0   .     S
V104     Er111    10.0   .     S
V104     V117    10.001   .     S
V104     V113    10.001   .     S
V105     V104    9.999   1_554     S
V105     Er107    10.0   .     S
V105     Er108    10.0   .     S
V105     V129    10.001   .     S
Er106     Er107    9.999   .     S
Er106     Er108    9.999   .     S
Er106     V129    10.0   .     S
Er106     Ti269    10.0   .     S
Er107     Er108    9.999   .     S
Er107     V129    10.0   .     S
Er107     Ti278    10.0   .     S
Er108     Ti193    10.0   .     S
Er109     Er111    9.999   .     S
Er109     Er110    9.999   .     S
Er109     V117    10.0   .     S
Er109     Ti284    10.0   .     S
Er110     Er111    9.999   .     S
Er110     V117    10.0   .     S
Er110     V113    10.0   .     S
Er110     Ti215    10.0   .     S
Er111     V113    10.0   .     S
Er111     Ti212    10.0   .     S
V112     V113    9.999   .     S
V112     Er115    10.0   .     S
V112     Er116    10.0   .     S
V112     V124    10.001   .     S
V113     V117    10.001   .     S
Er114     Er115    9.999   .     S
Er114     Er116    9.999   .     S
Er114     V124    10.0   .     S
Er114     Ti285    10.0   .     S
Er115     Er116    9.999   .     S
Er115     V124    10.0   .     S
Er115     Ti216    10.0   .     S
Er116     Ti210    10.0   .     S
V117     V118    9.999   1_655     S
V118     V117    9.999   1_455     S
V118     Er120    10.0   .     S
V118     Er121    10.0   .     S
V118     V131    10.001   .     S
V118     V123    10.001   .     S
Er119     Er120    9.999   .     S
Er119     Er121    9.999   .     S
Er119     V131    10.0   .     S
Er119     V123    10.0   .     S
Er119     Ti259    10.0   .     S
Er120     Er121    9.999   .     S
Er120     V131    10.0   .     S
Er120     Ti276    10.0   .     S
Er121     V123    10.0   .     S
Er121     Ti197    10.0   .     S
V122     V123    9.999   .     S
V122     Er127    10.0   .     S
V122     Er128    10.0   .     S
V122     V125    10.001   .     S
V122     V140    10.001   .     S
V123     V131    10.001   .     S
V124     V125    9.999   1_655     S
V125     V124    9.999   1_455     S
V125     Er126    10.0   .     S
V125     Er128    10.0   .     S
V125     V140    10.001   .     S
Er126     Er128    9.999   .     S
Er126     V140    10.0   .     S
Er126     Er127    9.999   .     S
Er126     Ti274    10.0   .     S
Er127     Er128    9.999   .     S
Er127     V140    10.0   .     S
Er127     Ti262    10.0   .     S
Er128     Ti204    10.0   .     S
V129     V130    9.999   1_655     S
V130     V129    9.999   1_455     S
V130     Er135    10.0   .     S
V130     Er133    10.0   .     S
V130     V132    10.001   .     S
V130     V137    10.001   .     S
V131     V132    9.999   1_556     S
V132     V131    9.999   1_554     S
V132     Er135    10.0   .     S
V132     Er134    10.0   .     S
V132     V137    10.001   .     S
Er133     Er135    9.999   .     S
Er133     V137    10.0   .     S
Er133     Er134    9.999   .     S
Er133     Ti228    10.0   .     S
Er134     Er135    9.999   .     S
Er134     V137    10.0   .     S
Er134     Ti224    10.0   .     S
Er135     Ti230    10.0   .     S
V136     V137    9.999   .     S
V136     Er143    10.0   .     S
V136     Er144    10.0   .     S
V136     V141    10.001   .     S
V136     V139    10.001   .     S
V138     V139    9.999   1_655     S
V139     V138    9.999   1_455     S
V139     Er142    10.0   .     S
V139     Er144    10.0   .     S
V139     V141    10.001   .     S
V140     V141    9.999   1_556     S
V141     V140    9.999   1_554     S
V141     Er142    10.0   .     S
V141     Er143    10.0   .     S
Er142     Er144    9.999   .     S
Er142     Er143    9.999   .     S
Er142     Ti231    10.0   .     S
Er143     Er144    9.999   .     S
Er143     Ti235    10.0   .     S
Er144     Ti258    10.0   .     S
V145     V146    9.999   1_655     S
V145     Er157    10.0   .     S
V145     Er158    10.0   .     S
V145     V165    10.001   .     S
V145     V161    10.001   .     S
V146     V145    9.999   1_455     S
V146     Er147    10.0   .     S
V146     Er149    10.0   .     S
V146     V179    10.001   .     S
V146     V151    10.001   .     S
Er147     Er149    9.999   .     S
Er147     V179    10.0   .     S
Er147     Er148    9.999   .     S
Er147     Ti280    10.0   .     S
Er148     Er149    9.999   .     S
Er148     V179    10.0   .     S
Er148     V151    10.0   .     S
Er148     Ti264    10.0   .     S
Er149     V151    10.0   .     S
Er149     Ti203    10.0   .     S
V150     V151    9.999   .     S
V150     Er154    10.0   .     S
V150     Er156    10.0   .     S
V150     V153    10.001   .     S
V150     V186    10.001   .     S
V151     V179    10.001   .     S
V152     V153    9.999   1_655     S
V152     Er162    10.0   .     S
V152     Er163    10.0   .     S
V152     V172    10.001   .     S
V152     V160    10.001   .     S
V153     V152    9.999   1_455     S
V153     Er155    10.0   .     S
V153     Er156    10.0   .     S
V153     V186    10.001   .     S
Er154     Er155    9.999   .     S
Er154     Er156    9.999   .     S
Er154     V186    10.0   .     S
Er154     Ti263    10.0   .     S
Er155     Er156    9.999   .     S
Er155     V186    10.0   .     S
Er155     Ti281    10.0   .     S
Er156     Ti198    10.0   .     S
Er157     Er159    9.999   .     S
Er157     Er158    9.999   .     S
Er157     V165    10.0   .     S
Er157     Ti287    10.0   .     S
Er158     Er159    9.999   .     S
Er158     V161    10.0   .     S
Er158     Ti208    10.0   .     S
Er159     V161    10.0   .     S
Er159     V165    10.0   .     S
Er159     Ti205    10.0   .     S
V160     V161    9.999   .     S
V160     Er163    10.0   .     S
V160     Er164    10.0   .     S
V160     V172    10.001   .     S
V161     V165    10.001   .     S
Er162     Er163    9.999   .     S
Er162     Er164    9.999   .     S
Er162     V172    10.0   .     S
Er162     Ti288    10.0   .     S
Er163     Er164    9.999   .     S
Er163     Ti207    10.0   .     S
Er164     V172    10.0   .     S
Er164     Ti206    10.0   .     S
V165     V166    9.999   1_565     S
V166     V165    9.999   1_545     S
V166     Er167    10.0   .     S
V166     Er169    10.0   .     S
V166     V177    10.001   .     S
V166     V171    10.001   .     S
Er167     Er169    9.999   .     S
Er167     V177    10.0   .     S
Er167     Er168    9.999   .     S
Er167     Ti279    10.0   .     S
Er168     Er169    9.999   .     S
Er168     V171    10.0   .     S
Er168     V177    10.0   .     S
Er168     Ti267    10.0   .     S
Er169     V171    10.0   .     S
Er169     Ti201    10.0   .     S
V170     V171    9.999   .     S
V170     Er174    10.0   .     S
V170     Er176    10.0   .     S
V170     V173    10.001   .     S
V170     V188    10.001   .     S
V171     V177    10.001   .     S
V172     V173    9.999   1_565     S
V173     V172    9.999   1_545     S
V173     Er175    10.0   .     S
V173     Er176    10.0   .     S
V173     V188    10.001   .     S
Er174     Er175    9.999   .     S
Er174     Er176    9.999   .     S
Er174     V188    10.0   .     S
Er174     Ti268    10.0   .     S
Er175     Er176    9.999   .     S
Er175     V188    10.0   .     S
Er175     Ti282    10.0   .     S
Er176     Ti195    10.0   .     S
V177     V178    9.999   1_655     S
V178     V177    9.999   1_455     S
V178     Er181    10.0   .     S
V178     Er183    10.0   .     S
V178     V180    10.001   .     S
V178     V185    10.001   .     S
V179     V180    9.999   1_565     S
V180     V179    9.999   1_545     S
V180     Er181    10.0   .     S
V180     Er182    10.0   .     S
V180     V185    10.001   .     S
Er181     Er182    9.999   .     S
Er181     Er183    9.999   .     S
Er181     Ti233    10.0   .     S
Er182     V185    10.0   .     S
Er182     Er183    9.999   .     S
Er182     Ti243    10.0   .     S
Er183     V185    10.0   .     S
Er183     Ti255    10.0   .     S
V184     V185    9.999   .     S
V184     Er190    10.0   .     S
V184     Er191    10.0   .     S
V184     V189    10.001   .     S
V184     V187    10.001   .     S
V186     V187    9.999   1_565     S
V187     V186    9.999   1_545     S
V187     Er192    10.0   .     S
V187     Er190    10.0   .     S
V187     V189    10.001   .     S
V188     V189    9.999   1_655     S
V189     V188    9.999   1_455     S
V189     Er192    10.0   .     S
V189     Er191    10.0   .     S
Er190     Er192    9.999   .     S
Er190     Er191    9.999   .     S
Er190     Ti225    10.0   .     S
Er191     Er192    9.999   .     S
Er191     Ti227    10.0   .     S
Er192     Ti234    10.0   .     S
Ti193     S599    10.0   .     S
Ti193     S600    10.0   .     S
Ti194     S571    10.0   .     S
Ti194     S572    10.0   .     S
Ti195     S491    10.0   .     S
Ti195     S492    10.0   .     S
Ti196     S463    10.0   .     S
Ti196     S464    10.0   .     S
Ti197     S679    10.0   .     S
Ti197     S680    10.0   .     S
Ti198     S707    10.0   .     S
Ti198     S708    10.0   .     S
Ti199     S578    10.0   .     S
Ti199     S579    10.0   .     S
Ti200     S606    10.0   .     S
Ti200     S607    10.0   .     S
Ti201     S498    10.0   .     S
Ti201     S499    10.0   .     S
Ti202     S470    10.0   .     S
Ti202     S471    10.0   .     S
Ti203     S714    10.0   .     S
Ti203     S715    10.0   .     S
Ti204     S686    10.0   .     S
Ti204     S687    10.0   .     S
Ti205     S483    10.0   .     S
Ti205     S482    10.0   .     S
Ti206     S490    10.0   .     S
Ti206     S489    10.0   .     S
Ti207     S706    10.0   .     S
Ti207     S705    10.0   .     S
Ti208     S699    10.0   .     S
Ti208     S698    10.0   .     S
Ti209     S570    10.0   .     S
Ti209     S569    10.0   .     S
Ti210     S591    10.0   .     S
Ti210     S590    10.0   .     S
Ti211     S563    10.0   .     S
Ti211     S562    10.0   .     S
Ti212     S598    10.0   .     S
Ti212     S597    10.0   .     S
Ti213     S455    10.0   .     S
Ti213     S454    10.0   .     S
Ti214     S462    10.0   .     S
Ti214     S461    10.0   .     S
Ti215     S678    10.0   .     S
Ti215     S677    10.0   .     S
Ti216     S671    10.0   .     S
Ti216     S670    10.0   .     S
Ti217     S550    10.0   .     S
Ti217     S549    10.0   .     S
Ti218     S528    10.0   .     S
Ti218     S527    10.0   .     S
Ti219     S420    10.0   .     S
Ti219     S419    10.0   .     S
Ti220     S442    10.0   .     S
Ti220     S441    10.0   .     S
Ti221     S658    10.0   .     S
Ti221     S657    10.0   .     S
Ti222     S636    10.0   .     S
Ti222     S635    10.0   .     S
Ti223     S512    10.0   .     S
Ti223     S511    10.0   .     S
Ti224     S510    10.0   .     S
Ti224     S509    10.0   .     S
Ti225     S404    10.0   .     S
Ti225     S403    10.0   .     S
Ti226     S401    10.0   .     S
Ti226     S402    10.0   .     S
Ti227     S618    10.0   .     S
Ti227     S617    10.0   .     S
Ti228     S619    10.0   .     S
Ti228     S620    10.0   .     S
Ti229     S325    10.0   .     S
Ti229     S324    10.0   .     S
Ti230     S373    10.0   .     S
Ti230     S372    10.0   .     S
Ti231     S311    10.0   .     S
Ti231     S310    10.0   .     S
Ti232     S380    10.0   .     S
Ti232     S379    10.0   .     S
Ti233     S356    10.0   .     S
Ti233     S355    10.0   .     S
Ti234     S389    10.0   .     S
Ti234     S388    10.0   .     S
Ti235     S529    10.0   .     S
Ti235     S530    10.0   .     S
Ti236     S518    10.0   .     S
Ti236     S519    10.0   .     S
Ti237     S551    10.0   .     S
Ti237     S552    10.0   .     S
Ti238     S560    10.0   .     S
Ti238     S561    10.0   .     S
Ti239     S542    10.0   .     S
Ti239     S543    10.0   .     S
Ti240     S520    10.0   .     S
Ti240     S521    10.0   .     S
Ti241     S531    10.0   .     S
Ti241     S532    10.0   .     S
Ti242     S558    10.0   .     S
Ti242     S559    10.0   .     S
Ti243     S410    10.0   .     S
Ti243     S411    10.0   .     S
Ti244     S434    10.0   .     S
Ti244     S435    10.0   .     S
Ti245     S443    10.0   .     S
Ti245     S444    10.0   .     S
Ti246     S450    10.0   .     S
Ti246     S451    10.0   .     S
Ti247     S423    10.0   .     S
Ti247     S424    10.0   .     S
Ti248     S452    10.0   .     S
Ti248     S453    10.0   .     S
Ti249     S412    10.0   .     S
Ti249     S413    10.0   .     S
Ti250     S421    10.0   .     S
Ti250     S422    10.0   .     S
Ti251     S668    10.0   .     S
Ti251     S669    10.0   .     S
Ti252     S639    10.0   .     S
Ti252     S640    10.0   .     S
Ti253     S628    10.0   .     S
Ti253     S629    10.0   .     S
Ti254     S650    10.0   .     S
Ti254     S651    10.0   .     S
Ti255     S637    10.0   .     S
Ti255     S638    10.0   .     S
Ti256     S659    10.0   .     S
Ti256     S660    10.0   .     S
Ti257     S666    10.0   .     S
Ti257     S667    10.0   .     S
Ti258     S626    10.0   .     S
Ti258     S627    10.0   .     S
Ti259     S506    10.0   .     S
Ti259     S505    10.0   .     S
Ti260     S539    10.0   .     S
Ti260     S538    10.0   .     S
Ti261     S508    10.0   .     S
Ti261     S507    10.0   .     S
Ti262     S541    10.0   .     S
Ti262     S540    10.0   .     S
Ti263     S400    10.0   .     S
Ti263     S399    10.0   .     S
Ti264     S431    10.0   .     S
Ti264     S430    10.0   .     S
Ti265     S398    10.0   .     S
Ti265     S397    10.0   .     S
Ti266     S433    10.0   .     S
Ti266     S432    10.0   .     S
Ti267     S649    10.0   .     S
Ti267     S648    10.0   .     S
Ti268     S614    10.0   .     S
Ti268     S613    10.0   .     S
Ti269     S616    10.0   .     S
Ti269     S615    10.0   .     S
Ti270     S647    10.0   .     S
Ti270     S646    10.0   .     S
Ti271     S367    10.0   .     S
Ti271     S366    10.0   .     S
Ti272     S309    10.0   .     S
Ti272     S308    10.0   .     S
Ti273     S369    10.0   .     S
Ti273     S368    10.0   .     S
Ti274     S302    10.0   .     S
Ti274     S301    10.0   .     S
Ti275     S332    10.0   .     S
Ti275     S331    10.0   .     S
Ti276     S365    10.0   .     S
Ti276     S364    10.0   .     S
Ti277     S323    10.0   .     S
Ti277     S322    10.0   .     S
Ti278     S371    10.0   .     S
Ti278     S370    10.0   .     S
Ti279     S349    10.0   .     S
Ti279     S348    10.0   .     S
Ti280     S358    10.0   .     S
Ti280     S357    10.0   .     S
Ti281     S382    10.0   .     S
Ti281     S381    10.0   .     S
Ti282     S391    10.0   .     S
Ti282     S390    10.0   .     S
Ti283     S296    10.0   .     S
Ti283     S295    10.0   .     S
Ti284     S290    10.0   .     S
Ti284     S289    10.0   .     S
Ti285     S298    10.0   .     S
Ti285     S297    10.0   .     S
Ti286     S292    10.0   .     S
Ti286     S291    10.0   .     S
Ti287     S300    10.0   .     S
Ti287     S299    10.0   .     S
Ti288     S294    10.0   .     S
Ti288     S293    10.0   .     S
S289     H353    10.0   .     S
S289     S290    10.001   .     S
S290     H336    10.0   .     S
S291     H306    10.0   .     S
S291     S292    10.001   .     S
S292     H362    10.0   .     S
S293     H329    10.0   .     S
S293     S294    10.001   .     S
S294     H315    10.0   .     S
S295     H338    10.0   .     S
S295     S296    10.001   .     S
S296     H320    10.0   .     S
S297     H317    10.0   .     S
S297     S298    10.001   .     S
S298     H346    10.0   .     S
S299     H343    10.0   .     S
S299     S300    10.001   .     S
S300     H341    10.0   .     S
S301     H347    10.0   .     S
S301     S302    10.001   .     S
S302     H303    10.0   .     S
H303     H304    9.999   1_556     S
H303     Ce305    9.999   1_556     S
H303     H306    10.001   .     S
H304     H303    9.999   1_554     S
H304     Ce305    9.999   .     S
H304     H307    10.001   .     S
H304     S310    10.0   .     S
Ce305     H303    9.999   1_554     S
Ce305     H306    9.999   1_554     S
Ce305     H307    9.999   .     S
Ce305     Ce575    10.001   .     S
H306     Ce305    9.999   1_556     S
H306     H307    9.999   1_556     S
H307     H306    9.999   1_554     S
H307     S366    10.0   .     S
S308     H318    10.0   .     S
S308     S309    10.001   .     S
S309     H312    10.0   .     S
S310     S311    10.001   .     S
S311     H313    10.0   .     S
H312     H313    9.999   1_655     S
H312     Ce314    9.999   1_655     S
H312     H315    10.001   .     S
H313     H312    9.999   1_455     S
H313     Ce314    9.999   .     S
H313     H316    10.001   .     S
Ce314     H315    9.999   1_455     S
Ce314     H312    9.999   1_455     S
Ce314     H316    9.999   .     S
Ce314     Ce711    10.001   .     S
H315     Ce314    9.999   1_655     S
H315     H316    9.999   1_655     S
H316     H315    9.999   1_455     S
H316     S381    10.0   .     S
H317     H318    9.999   1_556     S
H317     Ce319    9.999   1_556     S
H317     H320    10.001   .     S
H318     H317    9.999   1_554     S
H318     Ce319    9.999   .     S
H318     H321    10.001   .     S
Ce319     H320    9.999   1_554     S
Ce319     H317    9.999   1_554     S
Ce319     H321    9.999   .     S
Ce319     Ce587    10.001   .     S
H320     Ce319    9.999   1_556     S
H320     H321    9.999   1_556     S
H321     H320    9.999   1_554     S
H321     S322    10.0   .     S
S322     S323    10.001   .     S
S323     H326    10.0   .     S
S324     H327    10.0   .     S
S324     S325    10.001   .     S
S325     H334    10.0   .     S
H326     H327    9.999   1_565     S
H326     Ce328    9.999   1_565     S
H326     H329    10.001   .     S
H327     H326    9.999   1_545     S
H327     Ce328    9.999   .     S
H327     H330    10.001   .     S
Ce328     H326    9.999   1_545     S
Ce328     H329    9.999   1_545     S
Ce328     H330    9.999   .     S
Ce328     Ce495    10.001   .     S
H329     Ce328    9.999   1_565     S
H329     H330    9.999   1_565     S
H330     H329    9.999   1_545     S
H330     S390    10.0   .     S
S331     H339    10.0   .     S
S331     S332    10.001   .     S
S332     H333    10.0   .     S
H333     H334    9.999   1_556     S
H333     Ce335    9.999   1_556     S
H333     H336    10.001   .     S
H334     H333    9.999   1_554     S
H334     Ce335    9.999   .     S
H334     H337    10.001   .     S
Ce335     H336    9.999   1_554     S
Ce335     H333    9.999   1_554     S
Ce335     H337    9.999   .     S
Ce335     Ce603    10.001   .     S
H336     Ce335    9.999   1_556     S
H336     H337    9.999   1_556     S
H337     H336    9.999   1_554     S
H337     S370    10.0   .     S
H338     H339    9.999   1_565     S
H338     Ce340    9.999   1_565     S
H338     H341    10.001   .     S
H339     H338    9.999   1_545     S
H339     Ce340    9.999   .     S
H339     H342    10.001   .     S
Ce340     H341    9.999   1_545     S
Ce340     H338    9.999   1_545     S
Ce340     H342    9.999   .     S
Ce340     Ce479    10.001   .     S
H341     Ce340    9.999   1_565     S
H341     H342    9.999   1_565     S
H342     H341    9.999   1_545     S
H342     S348    10.0   .     S
H343     H344    9.999   1_655     S
H343     Ce345    9.999   1_655     S
H343     H346    10.001   .     S
H344     H343    9.999   1_455     S
H344     Ce345    9.999   .     S
H344     H347    10.001   .     S
H344     S357    10.0   .     S
Ce345     H346    9.999   1_455     S
Ce345     H343    9.999   1_455     S
Ce345     H347    9.999   .     S
Ce345     Ce695    10.001   .     S
H346     Ce345    9.999   1_655     S
H346     H347    9.999   1_655     S
H347     H346    9.999   1_455     S
S348     S349    10.001   .     S
S349     H350    10.0   .     S
H350     H351    9.999   1_655     S
H350     Ce352    9.999   1_655     S
H350     H353    10.001   .     S
H351     H350    9.999   1_455     S
H351     Ce352    9.999   .     S
H351     H354    10.001   .     S
H351     S355    10.0   .     S
Ce352     H350    9.999   1_455     S
Ce352     H353    9.999   1_455     S
Ce352     H354    9.999   .     S
Ce352     Ce683    10.001   .     S
H353     Ce352    9.999   1_655     S
H353     H354    9.999   1_655     S
H354     H353    9.999   1_455     S
H354     S364    10.0   .     S
S355     S356    10.001   .     S
S356     H360    10.0   .     S
S357     S358    10.001   .     S
S358     H359    10.0   .     S
H359     H360    9.999   1_565     S
H359     Ce361    9.999   1_565     S
H359     H362    10.001   .     S
H360     H359    9.999   1_545     S
H360     Ce361    9.999   .     S
H360     H363    10.001   .     S
Ce361     H362    9.999   1_545     S
Ce361     H359    9.999   1_545     S
Ce361     H363    9.999   .     S
Ce361     Ce467    10.001   .     S
H362     Ce361    9.999   1_565     S
H362     H363    9.999   1_565     S
H363     H362    9.999   1_545     S
H363     S368    10.0   .     S
S364     S365    10.001   .     S
S365     H374    10.0   .     S
S366     S367    10.001   .     S
S367     H383    10.0   .     S
S368     S369    10.001   .     S
S369     H377    10.0   .     S
S370     S371    10.001   .     S
S371     H392    10.0   .     S
S372     H393    10.0   .     S
S372     S373    10.001   .     S
S373     H375    10.0   .     S
H374     H375    9.999   1_556     S
H374     Ce376    9.999   1_556     S
H374     H377    10.001   .     S
H375     H374    9.999   1_554     S
H375     Ce376    9.999   .     S
H375     H378    10.001   .     S
Ce376     H377    9.999   1_554     S
Ce376     H374    9.999   1_554     S
Ce376     H378    9.999   .     S
Ce376     Ce515    10.001   .     S
H377     Ce376    9.999   1_556     S
H377     H378    9.999   1_556     S
H378     H377    9.999   1_554     S
H378     S379    10.0   .     S
S379     S380    10.001   .     S
S380     H384    10.0   .     S
S381     S382    10.001   .     S
S382     H386    10.0   .     S
H383     H384    9.999   1_565     S
H383     Ce385    9.999   1_565     S
H383     H386    10.001   .     S
H384     H383    9.999   1_545     S
H384     Ce385    9.999   .     S
H384     H387    10.001   .     S
Ce385     H386    9.999   1_545     S
Ce385     H383    9.999   1_545     S
Ce385     H387    9.999   .     S
Ce385     Ce407    10.001   .     S
H386     Ce385    9.999   1_565     S
H386     H387    9.999   1_565     S
H387     H386    9.999   1_545     S
H387     S388    10.0   .     S
S388     S389    10.001   .     S
S389     H396    10.0   .     S
S390     S391    10.001   .     S
S391     H395    10.0   .     S
H392     H393    9.999   1_655     S
H392     Ce394    9.999   1_655     S
H392     H395    10.001   .     S
H393     H392    9.999   1_455     S
H393     Ce394    9.999   .     S
H393     H396    10.001   .     S
Ce394     H392    9.999   1_455     S
Ce394     H395    9.999   1_455     S
Ce394     H396    9.999   .     S
Ce394     Ce623    10.001   .     S
H395     Ce394    9.999   1_655     S
H395     H396    9.999   1_655     S
H396     H395    9.999   1_455     S
S397     H449    10.0   .     S
S397     S398    10.001   .     S
S398     H405    10.0   .     S
S399     H439    10.0   .     S
S399     S400    10.001   .     S
S400     H408    10.0   .     S
S401     H425    10.0   .     S
S401     S402    10.001   .     S
S402     H406    10.0   .     S
S403     H415    10.0   .     S
S403     S404    10.001   .     S
S404     H409    10.0   .     S
H405     H406    9.999   1_565     S
H405     Ce407    9.999   1_565     S
H405     H408    10.001   .     S
H406     H405    9.999   1_545     S
H406     Ce407    9.999   .     S
H406     H409    10.001   .     S
Ce407     H405    9.999   1_545     S
Ce407     H408    9.999   1_545     S
Ce407     H409    9.999   .     S
H408     Ce407    9.999   1_565     S
H408     H409    9.999   1_565     S
H409     H408    9.999   1_545     S
S410     H469    10.0   .     S
S410     S411    10.001   .     S
S411     H414    10.0   .     S
S412     H418    10.0   .     S
S412     S413    10.001   .     S
S413     H475    10.0   .     S
H414     H415    9.999   .     S
H414     Ce416    9.999   .     S
H414     H418    10.001   .     S
H415     Ce416    9.999   .     S
H415     H417    10.001   .     S
Ce416     H418    9.999   .     S
Ce416     H417    9.999   .     S
Ce416     Ce643    10.001   .     S
H417     H418    9.999   .     S
H417     S419    10.0   .     S
S419     S420    10.001   .     S
S420     H429    10.0   .     S
S421     H497    10.0   .     S
S421     S422    10.001   .     S
S422     H426    10.0   .     S
S423     H428    10.0   .     S
S423     S424    10.001   .     S
S424     H504    10.0   .     S
H425     H426    9.999   .     S
H425     Ce427    9.999   .     S
H425     H429    10.001   .     S
H426     Ce427    9.999   .     S
H426     H428    10.001   .     S
Ce427     H428    9.999   .     S
Ce427     H429    9.999   .     S
Ce427     Ce524    10.001   .     S
H428     H429    9.999   .     S
S430     H440    10.0   .     S
S430     S431    10.001   .     S
S431     H468    10.0   .     S
S432     H448    10.0   .     S
S432     S433    10.001   .     S
S433     H496    10.0   .     S
S434     H437    10.0   .     S
S434     S435    10.001   .     S
S435     H457    10.0   .     S
H436     H437    9.999   .     S
H436     Ce438    9.999   .     S
H436     H439    10.001   .     S
H436     S441    10.0   .     S
H437     Ce438    9.999   .     S
H437     H440    10.001   .     S
Ce438     H439    9.999   .     S
Ce438     H440    9.999   .     S
Ce438     Ce718    10.001   .     S
H439     H440    9.999   .     S
S441     S442    10.001   .     S
S442     H446    10.0   .     S
S443     H487    10.0   .     S
S443     S444    10.001   .     S
S444     H445    10.0   .     S
H445     H446    9.999   .     S
H445     Ce447    9.999   .     S
H445     H448    10.001   .     S
H446     Ce447    9.999   .     S
H446     H449    10.001   .     S
Ce447     H448    9.999   .     S
Ce447     H449    9.999   .     S
Ce447     Ce582    10.001   .     S
H448     H449    9.999   .     S
S450     H476    10.0   .     S
S450     S451    10.001   .     S
S451     H503    10.0   .     S
S452     H488    10.0   .     S
S452     S453    10.001   .     S
S453     H456    10.0   .     S
S454     H460    10.0   .     S
S454     S455    10.001   .     S
S455     H477    10.0   .     S
H456     H457    9.999   .     S
H456     Ce458    9.999   .     S
H456     H460    10.001   .     S
H457     Ce458    9.999   .     S
H457     H459    10.001   .     S
Ce458     H460    9.999   .     S
Ce458     H459    9.999   .     S
Ce458     Ce566    10.001   .     S
H459     H460    9.999   .     S
H459     S461    10.0   .     S
S461     S462    10.001   .     S
S462     H465    10.0   .     S
S463     H466    10.0   .     S
S463     S464    10.001   .     S
S464     H473    10.0   .     S
H465     H466    9.999   1_565     S
H465     Ce467    9.999   1_565     S
H465     H468    10.001   .     S
H466     H465    9.999   1_545     S
H466     Ce467    9.999   .     S
H466     H469    10.001   .     S
Ce467     H468    9.999   1_545     S
Ce467     H465    9.999   1_545     S
Ce467     H469    9.999   .     S
H468     Ce467    9.999   1_565     S
H468     H469    9.999   1_565     S
H469     H468    9.999   1_545     S
S470     H478    10.0   .     S
S470     S471    10.001   .     S
S471     H472    10.0   .     S
H472     H473    9.999   .     S
H472     Ce474    9.999   .     S
H472     H476    10.001   .     S
H473     Ce474    9.999   .     S
H473     H475    10.001   .     S
Ce474     H475    9.999   .     S
Ce474     H476    9.999   .     S
Ce474     Ce546    10.001   .     S
H475     H476    9.999   .     S
H477     H478    9.999   1_565     S
H477     Ce479    9.999   1_565     S
H477     H480    10.001   .     S
H478     H477    9.999   1_545     S
H478     Ce479    9.999   .     S
H478     H481    10.001   .     S
Ce479     H477    9.999   1_545     S
Ce479     H480    9.999   1_545     S
Ce479     H481    9.999   .     S
H480     Ce479    9.999   1_565     S
H480     H481    9.999   1_565     S
H480     S483    10.0   .     S
H481     H480    9.999   1_545     S
H481     S498    10.0   .     S
S482     H484    10.0   .     S
S482     S483    10.001   .     S
H484     H485    9.999   .     S
H484     Ce486    9.999   .     S
H484     H488    10.001   .     S
H485     Ce486    9.999   .     S
H485     H487    10.001   .     S
H485     S489    10.0   .     S
Ce486     H488    9.999   .     S
Ce486     H487    9.999   .     S
Ce486     Ce702    10.001   .     S
H487     H488    9.999   .     S
S489     S490    10.001   .     S
S490     H493    10.0   .     S
S491     H500    10.0   .     S
S491     S492    10.001   .     S
S492     H494    10.0   .     S
H493     H494    9.999   1_565     S
H493     Ce495    9.999   1_565     S
H493     H496    10.001   .     S
H494     H493    9.999   1_545     S
H494     Ce495    9.999   .     S
H494     H497    10.001   .     S
Ce495     H493    9.999   1_545     S
Ce495     H496    9.999   1_545     S
Ce495     H497    9.999   .     S
H496     Ce495    9.999   1_565     S
H496     H497    9.999   1_565     S
H497     H496    9.999   1_545     S
S498     S499    10.001   .     S
S499     H501    10.0   .     S
H500     H501    9.999   .     S
H500     Ce502    9.999   .     S
H500     H504    10.001   .     S
H501     Ce502    9.999   .     S
H501     H503    10.001   .     S
Ce502     H503    9.999   .     S
Ce502     H504    9.999   .     S
Ce502     Ce663    10.001   .     S
H503     H504    9.999   .     S
S505     H557    10.0   .     S
S505     S506    10.001   .     S
S506     H513    10.0   .     S
S507     H547    10.0   .     S
S507     S508    10.001   .     S
S508     H516    10.0   .     S
S509     H533    10.0   .     S
S509     S510    10.001   .     S
S510     H514    10.0   .     S
S511     H523    10.0   .     S
S511     S512    10.001   .     S
S512     H517    10.0   .     S
H513     H514    9.999   1_556     S
H513     Ce515    9.999   1_556     S
H513     H516    10.001   .     S
H514     H513    9.999   1_554     S
H514     Ce515    9.999   .     S
H514     H517    10.001   .     S
Ce515     H513    9.999   1_554     S
Ce515     H516    9.999   1_554     S
Ce515     H517    9.999   .     S
H516     Ce515    9.999   1_556     S
H516     H517    9.999   1_556     S
H517     H516    9.999   1_554     S
S518     H605    10.0   .     S
S518     S519    10.001   .     S
S519     H522    10.0   .     S
S520     H526    10.0   .     S
S520     S521    10.001   .     S
S521     H611    10.0   .     S
H522     H523    9.999   .     S
H522     Ce524    9.999   .     S
H522     H526    10.001   .     S
H523     Ce524    9.999   .     S
H523     H525    10.001   .     S
Ce524     H526    9.999   .     S
Ce524     H525    9.999   .     S
H525     H526    9.999   .     S
H525     S527    10.0   .     S
S527     S528    10.001   .     S
S528     H537    10.0   .     S
S529     H577    10.0   .     S
S529     S530    10.001   .     S
S530     H534    10.0   .     S
S531     H536    10.0   .     S
S531     S532    10.001   .     S
S532     H584    10.0   .     S
H533     H534    9.999   .     S
H533     Ce535    9.999   .     S
H533     H537    10.001   .     S
H534     Ce535    9.999   .     S
H534     H536    10.001   .     S
Ce535     H536    9.999   .     S
Ce535     H537    9.999   .     S
Ce535     Ce632    10.001   .     S
H536     H537    9.999   .     S
S538     H548    10.0   .     S
S538     S539    10.001   .     S
S539     H604    10.0   .     S
S540     H556    10.0   .     S
S540     S541    10.001   .     S
S541     H576    10.0   .     S
S542     H545    10.0   .     S
S542     S543    10.001   .     S
S543     H596    10.0   .     S
H544     H545    9.999   .     S
H544     Ce546    9.999   .     S
H544     H547    10.001   .     S
H544     S549    10.0   .     S
H545     Ce546    9.999   .     S
H545     H548    10.001   .     S
Ce546     H547    9.999   .     S
Ce546     H548    9.999   .     S
H547     H548    9.999   .     S
S549     S550    10.001   .     S
S550     H554    10.0   .     S
S551     H564    10.0   .     S
S551     S552    10.001   .     S
S552     H553    10.0   .     S
H553     H554    9.999   .     S
H553     Ce555    9.999   .     S
H553     H556    10.001   .     S
H554     Ce555    9.999   .     S
H554     H557    10.001   .     S
Ce555     H556    9.999   .     S
Ce555     H557    9.999   .     S
Ce555     Ce690    10.001   .     S
H556     H557    9.999   .     S
S558     H612    10.0   .     S
S558     S559    10.001   .     S
S559     H583    10.0   .     S
S560     H565    10.0   .     S
S560     S561    10.001   .     S
S561     H595    10.0   .     S
S562     H568    10.0   .     S
S562     S563    10.001   .     S
S563     H585    10.0   .     S
H564     H565    9.999   .     S
H564     Ce566    9.999   .     S
H564     H567    10.001   .     S
H565     Ce566    9.999   .     S
H565     H568    10.001   .     S
Ce566     H567    9.999   .     S
Ce566     H568    9.999   .     S
H567     H568    9.999   .     S
H567     S569    10.0   .     S
S569     S570    10.001   .     S
S570     H573    10.0   .     S
S571     H574    10.0   .     S
S571     S572    10.001   .     S
S572     H581    10.0   .     S
H573     H574    9.999   1_556     S
H573     Ce575    9.999   1_556     S
H573     H576    10.001   .     S
H574     H573    9.999   1_554     S
H574     Ce575    9.999   .     S
H574     H577    10.001   .     S
Ce575     H573    9.999   1_554     S
Ce575     H576    9.999   1_554     S
Ce575     H577    9.999   .     S
H576     Ce575    9.999   1_556     S
H576     H577    9.999   1_556     S
H577     H576    9.999   1_554     S
S578     H586    10.0   .     S
S578     S579    10.001   .     S
S579     H580    10.0   .     S
H580     H581    9.999   .     S
H580     Ce582    9.999   .     S
H580     H583    10.001   .     S
H581     Ce582    9.999   .     S
H581     H584    10.001   .     S
Ce582     H583    9.999   .     S
Ce582     H584    9.999   .     S
H583     H584    9.999   .     S
H585     H586    9.999   1_556     S
H585     Ce587    9.999   1_556     S
H585     H588    10.001   .     S
H586     H585    9.999   1_554     S
H586     Ce587    9.999   .     S
H586     H589    10.001   .     S
Ce587     H588    9.999   1_554     S
Ce587     H585    9.999   1_554     S
Ce587     H589    9.999   .     S
H588     Ce587    9.999   1_556     S
H588     H589    9.999   1_556     S
H588     S591    10.0   .     S
H589     H588    9.999   1_554     S
H589     S606    10.0   .     S
S590     H593    10.0   .     S
S590     S591    10.001   .     S
H592     H593    9.999   .     S
H592     Ce594    9.999   .     S
H592     H596    10.001   .     S
H592     S597    10.0   .     S
H593     Ce594    9.999   .     S
H593     H595    10.001   .     S
Ce594     H596    9.999   .     S
Ce594     H595    9.999   .     S
Ce594     Ce674    10.001   .     S
H595     H596    9.999   .     S
S597     S598    10.001   .     S
S598     H601    10.0   .     S
S599     H608    10.0   .     S
S599     S600    10.001   .     S
S600     H602    10.0   .     S
H601     H602    9.999   1_556     S
H601     Ce603    9.999   1_556     S
H601     H604    10.001   .     S
H602     H601    9.999   1_554     S
H602     Ce603    9.999   .     S
H602     H605    10.001   .     S
Ce603     H604    9.999   1_554     S
Ce603     H601    9.999   1_554     S
Ce603     H605    9.999   .     S
H604     Ce603    9.999   1_556     S
H604     H605    9.999   1_556     S
H605     H604    9.999   1_554     S
S606     S607    10.001   .     S
S607     H609    10.0   .     S
H608     H609    9.999   .     S
H608     Ce610    9.999   .     S
H608     H611    10.001   .     S
H609     Ce610    9.999   .     S
H609     H612    10.001   .     S
Ce610     H611    9.999   .     S
Ce610     H612    9.999   .     S
Ce610     Ce654    10.001   .     S
H611     H612    9.999   .     S
S613     H665    10.0   .     S
S613     S614    10.001   .     S
S614     H621    10.0   .     S
S615     H655    10.0   .     S
S615     S616    10.001   .     S
S616     H624    10.0   .     S
S617     H641    10.0   .     S
S617     S618    10.001   .     S
S618     H622    10.0   .     S
S619     H631    10.0   .     S
S619     S620    10.001   .     S
S620     H625    10.0   .     S
H621     H622    9.999   1_655     S
H621     Ce623    9.999   1_655     S
H621     H624    10.001   .     S
H622     H621    9.999   1_455     S
H622     Ce623    9.999   .     S
H622     H625    10.001   .     S
Ce623     H621    9.999   1_455     S
Ce623     H624    9.999   1_455     S
Ce623     H625    9.999   .     S
H624     Ce623    9.999   1_655     S
H624     H625    9.999   1_655     S
H625     H624    9.999   1_455     S
S626     H713    10.0   .     S
S626     S627    10.001   .     S
S627     H630    10.0   .     S
S628     H634    10.0   .     S
S628     S629    10.001   .     S
S629     H719    10.0   .     S
H630     H631    9.999   .     S
H630     Ce632    9.999   .     S
H630     H634    10.001   .     S
H631     Ce632    9.999   .     S
H631     H633    10.001   .     S
Ce632     H634    9.999   .     S
Ce632     H633    9.999   .     S
H633     H634    9.999   .     S
H633     S635    10.0   .     S
S635     S636    10.001   .     S
S636     H645    10.0   .     S
S637     H685    10.0   .     S
S637     S638    10.001   .     S
S638     H642    10.0   .     S
S639     H644    10.0   .     S
S639     S640    10.001   .     S
S640     H692    10.0   .     S
H641     H642    9.999   .     S
H641     Ce643    9.999   .     S
H641     H645    10.001   .     S
H642     Ce643    9.999   .     S
H642     H644    10.001   .     S
Ce643     H644    9.999   .     S
Ce643     H645    9.999   .     S
H644     H645    9.999   .     S
S646     H656    10.0   .     S
S646     S647    10.001   .     S
S647     H712    10.0   .     S
S648     H664    10.0   .     S
S648     S649    10.001   .     S
S649     H684    10.0   .     S
S650     H653    10.0   .     S
S650     S651    10.001   .     S
S651     H701    10.0   .     S
H652     H653    9.999   .     S
H652     Ce654    9.999   .     S
H652     H655    10.001   .     S
H652     S657    10.0   .     S
H653     Ce654    9.999   .     S
H653     H656    10.001   .     S
Ce654     H655    9.999   .     S
Ce654     H656    9.999   .     S
H655     H656    9.999   .     S
S657     S658    10.001   .     S
S658     H662    10.0   .     S
S659     H672    10.0   .     S
S659     S660    10.001   .     S
S660     H661    10.0   .     S
H661     H662    9.999   .     S
H661     Ce663    9.999   .     S
H661     H664    10.001   .     S
H662     Ce663    9.999   .     S
H662     H665    10.001   .     S
Ce663     H664    9.999   .     S
Ce663     H665    9.999   .     S
H664     H665    9.999   .     S
S666     H720    10.0   .     S
S666     S667    10.001   .     S
S667     H691    10.0   .     S
S668     H673    10.0   .     S
S668     S669    10.001   .     S
S669     H700    10.0   .     S
S670     H676    10.0   .     S
S670     S671    10.001   .     S
S671     H693    10.0   .     S
H672     H673    9.999   .     S
H672     Ce674    9.999   .     S
H672     H675    10.001   .     S
H673     Ce674    9.999   .     S
H673     H676    10.001   .     S
Ce674     H675    9.999   .     S
Ce674     H676    9.999   .     S
H675     H676    9.999   .     S
H675     S677    10.0   .     S
S677     S678    10.001   .     S
S678     H681    10.0   .     S
S679     H682    10.0   .     S
S679     S680    10.001   .     S
S680     H689    10.0   .     S
H681     H682    9.999   1_655     S
H681     Ce683    9.999   1_655     S
H681     H684    10.001   .     S
H682     H681    9.999   1_455     S
H682     Ce683    9.999   .     S
H682     H685    10.001   .     S
Ce683     H681    9.999   1_455     S
Ce683     H684    9.999   1_455     S
Ce683     H685    9.999   .     S
H684     Ce683    9.999   1_655     S
H684     H685    9.999   1_655     S
H685     H684    9.999   1_455     S
S686     H694    10.0   .     S
S686     S687    10.001   .     S
S687     H688    10.0   .     S
H688     H689    9.999   .     S
H688     Ce690    9.999   .     S
H688     H691    10.001   .     S
H689     Ce690    9.999   .     S
H689     H692    10.001   .     S
Ce690     H691    9.999   .     S
Ce690     H692    9.999   .     S
H691     H692    9.999   .     S
H693     H694    9.999   1_655     S
H693     Ce695    9.999   1_655     S
H693     H696    10.001   .     S
H694     H693    9.999   1_455     S
H694     Ce695    9.999   .     S
H694     H697    10.001   .     S
Ce695     H696    9.999   1_455     S
Ce695     H693    9.999   1_455     S
Ce695     H697    9.999   .     S
H696     Ce695    9.999   1_655     S
H696     H697    9.999   1_655     S
H696     S699    10.0   .     S
H697     H696    9.999   1_455     S
H697     S714    10.0   .     S
S698     H704    10.0   .     S
S698     S699    10.001   .     S
H700     H701    9.999   .     S
H700     Ce702    9.999   .     S
H700     H704    10.001   .     S
H701     Ce702    9.999   .     S
H701     H703    10.001   .     S
Ce702     H704    9.999   .     S
Ce702     H703    9.999   .     S
H703     H704    9.999   .     S
H703     S705    10.0   .     S
S705     S706    10.001   .     S
S706     H709    10.0   .     S
S707     H716    10.0   .     S
S707     S708    10.001   .     S
S708     H710    10.0   .     S
H709     H710    9.999   1_655     S
H709     Ce711    9.999   1_655     S
H709     H712    10.001   .     S
H710     H709    9.999   1_455     S
H710     Ce711    9.999   .     S
H710     H713    10.001   .     S
Ce711     H712    9.999   1_455     S
Ce711     H709    9.999   1_455     S
Ce711     H713    9.999   .     S
H712     Ce711    9.999   1_655     S
H712     H713    9.999   1_655     S
H713     H712    9.999   1_455     S
S714     S715    10.001   .     S
S715     H717    10.0   .     S
H716     H717    9.999   .     S
H716     Ce718    9.999   .     S
H716     H719    10.001   .     S
H717     Ce718    9.999   .     S
H717     H720    10.001   .     S
Ce718     H719    9.999   .     S
Ce718     H720    9.999   .     S
H719     H720    9.999   .     S
