data_pem
_audit_creation_date              2020-02-04
_audit_creation_method            'Pymatgen'
_symmetry_space_group_name_H-M    'P1'
_symmetry_Int_Tables_number       1
loop_
_symmetry_equiv_pos_as_xyz
  x,y,z
_cell_length_a                    28.065
_cell_length_b                    28.065
_cell_length_c                    28.065
_cell_angle_alpha                 90.0
_cell_angle_beta                 90.0
_cell_angle_gamma                 90.0
loop_
_atom_site_label
_atom_site_type_symbol
_atom_site_fract_x
_atom_site_fract_y
_atom_site_fract_z
V1     V     0.3971   0.3971   0.3971
V2     V     0.3529   0.3529   0.3529
V3     V     0.6029   0.1029   0.3971
V4     V     0.6471   0.1471   0.3529
V5     V     0.8529   0.1471   0.6471
V6     V     0.8971   0.1029   0.6029
V7     V     0.1471   0.6471   0.8529
V8     V     0.1029   0.6029   0.8971
V9     V     0.1029   0.3971   0.6029
V10     V     0.1471   0.3529   0.6471
V11     V     0.8971   0.8971   0.8971
V12     V     0.8529   0.8529   0.8529
V13     V     0.6471   0.8529   0.1471
V14     V     0.6029   0.8971   0.1029
V15     V     0.3971   0.6029   0.1029
V16     V     0.3529   0.6471   0.1471
V17     V     0.6029   0.6029   0.6029
V18     V     0.6471   0.6471   0.6471
V19     V     0.6029   0.3971   0.8971
V20     V     0.6471   0.3529   0.8529
V21     V     0.8529   0.3529   0.1471
V22     V     0.8971   0.3971   0.1029
V23     V     0.8971   0.6029   0.3971
V24     V     0.8529   0.6471   0.3529
V25     V     0.3971   0.8971   0.6029
V26     V     0.3529   0.8529   0.6471
V27     V     0.3529   0.1471   0.8529
V28     V     0.3971   0.1029   0.8971
V29     V     0.1471   0.8529   0.3529
V30     V     0.1029   0.8971   0.3971
V31     V     0.1029   0.1029   0.1029
V32     V     0.1471   0.1471   0.1471
loop_
_geom_bond_atom_site_label_1
_geom_bond_atom_site_label_2
_geom_bond_distance
_geom_bond_site_symmetry_2
_ccdc_geom_bond_type
V1     V4    10.0   .     S
V1     V10    10.0   .     S
V1     V16    10.0   .     S
V1     V17    10.0   .     S
V2     V3    10.0   .     S
V2     V9    10.0   .     S
V2     V15    10.0   .     S
V2     V32    10.0   .     S
V3     V5    10.0   .     S
V3     V13    10.0   1_545     S
V3     V25    10.0   1_545     S
V4     V6    10.0   .     S
V4     V14    10.0   1_545     S
V4     V21    10.0   .     S
V5     V9    10.0   1_655     S
V5     V11    10.0   1_545     S
V5     V20    10.0   .     S
V6     V10    10.0   1_655     S
V6     V12    10.0   1_545     S
V6     V30    10.0   1_645     S
V7     V15    10.0   1_556     S
V7     V9    10.0   .     S
V7     V11    10.0   1_455     S
V7     V26    10.0   .     S
V8     V16    10.0   1_556     S
V8     V10    10.0   .     S
V8     V12    10.0   1_455     S
V8     V22    10.0   1_456     S
V9     V5    10.0   1_455     S
V9     V23    10.0   1_455     S
V10     V6    10.0   1_455     S
V10     V27    10.0   .     S
V11     V7    10.0   1_655     S
V11     V5    10.0   1_565     S
V11     V13    10.0   1_556     S
V11     V31    10.0   1_666     S
V12     V8    10.0   1_655     S
V12     V6    10.0   1_565     S
V12     V14    10.0   1_556     S
V12     V18    10.0   .     S
V13     V11    10.0   1_554     S
V13     V3    10.0   1_565     S
V13     V15    10.0   .     S
V13     V24    10.0   .     S
V14     V12    10.0   1_554     S
V14     V4    10.0   1_565     S
V14     V16    10.0   .     S
V14     V28    10.0   1_564     S
V15     V7    10.0   1_554     S
V15     V19    10.0   1_554     S
V16     V8    10.0   1_554     S
V16     V29    10.0   .     S
V17     V26    10.0   .     S
V17     V20    10.0   .     S
V17     V24    10.0   .     S
V18     V25    10.0   .     S
V18     V19    10.0   .     S
V18     V23    10.0   .     S
V19     V27    10.0   .     S
V19     V21    10.0   1_556     S
V19     V15    10.0   1_556     S
V20     V28    10.0   .     S
V20     V22    10.0   1_556     S
V21     V19    10.0   1_554     S
V21     V31    10.0   1_655     S
V21     V23    10.0   .     S
V22     V20    10.0   1_554     S
V22     V32    10.0   1_655     S
V22     V24    10.0   .     S
V22     V8    10.0   1_654     S
V23     V29    10.0   1_655     S
V23     V9    10.0   1_655     S
V24     V30    10.0   1_655     S
V25     V29    10.0   .     S
V25     V27    10.0   1_565     S
V25     V3    10.0   1_565     S
V26     V30    10.0   .     S
V26     V28    10.0   1_565     S
V27     V25    10.0   1_545     S
V27     V31    10.0   1_556     S
V28     V26    10.0   1_545     S
V28     V32    10.0   1_556     S
V28     V14    10.0   1_546     S
V29     V23    10.0   1_455     S
V29     V31    10.0   1_565     S
V30     V24    10.0   1_455     S
V30     V32    10.0   1_565     S
V30     V6    10.0   1_465     S
V31     V21    10.0   1_455     S
V31     V27    10.0   1_554     S
V31     V29    10.0   1_545     S
V31     V11    10.0   1_444     S
V32     V22    10.0   1_455     S
V32     V28    10.0   1_554     S
V32     V30    10.0   1_545     S
