data_pmc
_audit_creation_date              2020-02-04
_audit_creation_method            'Pymatgen'
_symmetry_space_group_name_H-M    'P1'
_symmetry_Int_Tables_number       1
loop_
_symmetry_equiv_pos_as_xyz
  x,y,z
_cell_length_a                    52.4252
_cell_length_b                    52.4252
_cell_length_c                    52.4252
_cell_angle_alpha                 90.0
_cell_angle_beta                 90.0
_cell_angle_gamma                 90.0
loop_
_atom_site_label
_atom_site_type_symbol
_atom_site_fract_x
_atom_site_fract_y
_atom_site_fract_z
V1     V     0.7002   0.9162   0.2276
V2     V     0.7002   0.0838   0.2725
V3     V     0.5498   0.0225   0.3338
V4     V     0.5498   0.9776   0.1662
V5     V     0.9502   0.9776   0.8338
V6     V     0.9502   0.0225   0.6662
V7     V     0.7998   0.9162   0.7724
V8     V     0.7998   0.0838   0.7275
V9     V     0.2276   0.7002   0.9162
V10     V     0.2725   0.7002   0.0838
V11     V     0.3338   0.5498   0.0225
V12     V     0.1662   0.5498   0.9776
V13     V     0.8338   0.9502   0.9776
V14     V     0.6662   0.9502   0.0225
V15     V     0.7724   0.7998   0.9162
V16     V     0.7276   0.7998   0.0838
V17     V     0.5838   0.7724   0.2002
V18     V     0.4162   0.7275   0.2002
V19     V     0.5224   0.8338   0.0498
V20     V     0.4776   0.6662   0.0498
V21     V     0.2998   0.4162   0.2725
V22     V     0.2998   0.5838   0.2276
V23     V     0.4502   0.4776   0.3338
V24     V     0.4502   0.5225   0.1662
V25     V     0.2725   0.2998   0.4162
V26     V     0.2276   0.2998   0.5838
V27     V     0.3338   0.4502   0.4776
V28     V     0.1662   0.4502   0.5224
V29     V     0.9776   0.8338   0.9502
V30     V     0.0225   0.6662   0.9502
V31     V     0.9162   0.7724   0.7998
V32     V     0.0838   0.7275   0.7998
V33     V     0.9162   0.2276   0.7002
V34     V     0.0838   0.2725   0.7002
V35     V     0.0225   0.3338   0.5498
V36     V     0.9776   0.1662   0.5498
V37     V     0.2002   0.5838   0.7724
V38     V     0.2002   0.4162   0.7276
V39     V     0.0498   0.5225   0.8338
V40     V     0.0498   0.4776   0.6662
V41     V     0.4162   0.2725   0.2998
V42     V     0.5838   0.2276   0.2998
V43     V     0.4776   0.3338   0.4502
V44     V     0.5224   0.1662   0.4502
V45     V     0.7724   0.2002   0.5838
V46     V     0.7276   0.2002   0.4162
V47     V     0.8338   0.0498   0.5225
V48     V     0.6662   0.0498   0.4776
loop_
_geom_bond_atom_site_label_1
_geom_bond_atom_site_label_2
_geom_bond_distance
_geom_bond_site_symmetry_2
_ccdc_geom_bond_type
V1     V3    11.148   1_565     S
V1     V2    9.096   1_565     S
V1     V4    9.105   .     S
V1     V14    11.044   .     S
V1     V16    9.803   .     S
V1     V17    9.803   .     S
V2     V4    11.148   1_545     S
V2     V1    9.096   1_545     S
V2     V3    9.105   .     S
V2     V48    11.044   .     S
V2     V42    9.803   .     S
V2     V46    9.803   .     S
V3     V1    11.148   1_545     S
V3     V4    9.096   1_545     S
V3     V42    11.044   .     S
V3     V44    9.803   .     S
V3     V48    9.803   .     S
V4     V2    11.148   1_565     S
V4     V3    9.096   1_565     S
V4     V17    11.044   .     S
V4     V14    9.803   .     S
V4     V19    9.803   .     S
V5     V8    11.148   1_565     S
V5     V6    9.096   1_565     S
V5     V7    9.105   .     S
V5     V31    11.044   .     S
V5     V29    9.803   .     S
V5     V13    9.803   .     S
V6     V7    11.148   1_545     S
V6     V5    9.096   1_545     S
V6     V8    9.105   .     S
V6     V33    11.044   .     S
V6     V36    9.803   .     S
V6     V47    9.803   .     S
V7     V6    11.148   1_565     S
V7     V8    9.096   1_565     S
V7     V13    11.044   .     S
V7     V31    9.803   .     S
V7     V15    9.803   .     S
V8     V5    11.148   1_545     S
V8     V7    9.096   1_545     S
V8     V47    11.044   .     S
V8     V33    9.803   .     S
V8     V45    9.803   .     S
V9     V11    11.148   1_556     S
V9     V10    9.096   1_556     S
V9     V12    9.105   .     S
V9     V30    11.044   .     S
V9     V32    9.803   .     S
V9     V37    9.803   .     S
V10     V12    11.148   1_554     S
V10     V9    9.096   1_554     S
V10     V11    9.105   .     S
V10     V20    11.044   .     S
V10     V18    9.803   .     S
V10     V22    9.803   .     S
V11     V9    11.148   1_554     S
V11     V12    9.096   1_554     S
V11     V22    11.044   .     S
V11     V20    9.803   .     S
V11     V24    9.803   .     S
V12     V10    11.148   1_556     S
V12     V11    9.096   1_556     S
V12     V37    11.044   .     S
V12     V30    9.803   .     S
V12     V39    9.803   .     S
V13     V16    11.148   1_556     S
V13     V14    9.096   1_556     S
V13     V15    9.105   .     S
V13     V29    9.803   .     S
V14     V15    11.148   1_554     S
V14     V13    9.096   1_554     S
V14     V16    9.105   .     S
V14     V19    9.803   .     S
V15     V14    11.148   1_556     S
V15     V16    9.096   1_556     S
V15     V29    11.044   .     S
V15     V31    9.803   .     S
V16     V13    11.148   1_554     S
V16     V15    9.096   1_554     S
V16     V19    11.044   .     S
V16     V17    9.803   .     S
V17     V20    11.148   .     S
V17     V18    9.096   .     S
V17     V19    9.105   .     S
V18     V19    11.148   .     S
V18     V20    9.105   .     S
V18     V24    11.044   .     S
V18     V22    9.803   .     S
V19     V20    9.096   .     S
V20     V24    9.803   .     S
V21     V24    11.148   .     S
V21     V22    9.096   .     S
V21     V23    9.105   .     S
V21     V27    11.044   .     S
V21     V25    9.803   .     S
V21     V41    9.803   .     S
V22     V23    11.148   .     S
V22     V24    9.105   .     S
V23     V24    9.096   .     S
V23     V41    11.044   .     S
V23     V27    9.803   .     S
V23     V43    9.803   .     S
V25     V28    11.148   .     S
V25     V26    9.096   .     S
V25     V27    9.105   .     S
V25     V43    11.044   .     S
V25     V41    9.803   .     S
V26     V27    11.148   .     S
V26     V28    9.105   .     S
V26     V35    11.044   .     S
V26     V34    9.803   .     S
V26     V38    9.803   .     S
V27     V28    9.096   .     S
V27     V43    9.803   .     S
V28     V38    11.044   .     S
V28     V35    9.803   .     S
V28     V40    9.803   .     S
V29     V32    11.148   1_655     S
V29     V30    9.096   1_655     S
V29     V31    9.105   .     S
V30     V31    11.148   1_455     S
V30     V29    9.096   1_455     S
V30     V32    9.105   .     S
V30     V39    9.803   .     S
V31     V30    11.148   1_655     S
V31     V32    9.096   1_655     S
V32     V29    11.148   1_455     S
V32     V31    9.096   1_455     S
V32     V39    11.044   .     S
V32     V37    9.803   .     S
V33     V35    11.148   1_655     S
V33     V34    9.096   1_655     S
V33     V36    9.105   .     S
V33     V45    9.803   .     S
V34     V36    11.148   1_455     S
V34     V33    9.096   1_455     S
V34     V35    9.105   .     S
V34     V40    11.044   .     S
V34     V38    9.803   .     S
V35     V33    11.148   1_455     S
V35     V36    9.096   1_455     S
V35     V40    9.803   .     S
V36     V34    11.148   1_655     S
V36     V35    9.096   1_655     S
V36     V45    11.044   .     S
V36     V47    9.803   .     S
V37     V40    11.148   .     S
V37     V38    9.096   .     S
V37     V39    9.105   .     S
V38     V39    11.148   .     S
V38     V40    9.105   .     S
V39     V40    9.096   .     S
V41     V44    11.148   .     S
V41     V42    9.096   .     S
V41     V43    9.105   .     S
V42     V43    11.148   .     S
V42     V44    9.105   .     S
V42     V46    9.803   .     S
V43     V44    9.096   .     S
V44     V46    11.044   .     S
V44     V48    9.803   .     S
V45     V48    11.148   .     S
V45     V46    9.096   .     S
V45     V47    9.105   .     S
V46     V47    11.148   .     S
V46     V48    9.105   .     S
V47     V48    9.096   .     S
