data_pyc
_audit_creation_date              2020-02-04
_audit_creation_method            'Pymatgen'
_symmetry_space_group_name_H-M    'P1'
_symmetry_Int_Tables_number       1
loop_
_symmetry_equiv_pos_as_xyz
  x,y,z
_cell_length_a                    37.7124
_cell_length_b                    37.7124
_cell_length_c                    37.7124
_cell_angle_alpha                 90.0
_cell_angle_beta                 90.0
_cell_angle_gamma                 90.0
loop_
_atom_site_label
_atom_site_type_symbol
_atom_site_fract_x
_atom_site_fract_y
_atom_site_fract_z
V1     V     0.375   0.875   0.6875
V2     V     0.1875   0.875   0.875
V3     V     0.375   0.6875   0.875
V4     V     0.375   0.0625   0.875
V5     V     0.375   0.875   0.0625
V6     V     0.5625   0.875   0.875
V7     V     0.875   0.375   0.6875
V8     V     0.875   0.1875   0.875
V9     V     0.6875   0.375   0.875
V10     V     0.0625   0.375   0.875
V11     V     0.875   0.375   0.0625
V12     V     0.875   0.5625   0.875
V13     V     0.875   0.875   0.1875
V14     V     0.875   0.6875   0.375
V15     V     0.6875   0.875   0.375
V16     V     0.0625   0.875   0.375
V17     V     0.875   0.0625   0.375
V18     V     0.875   0.875   0.5625
V19     V     0.125   0.125   0.4375
V20     V     0.625   0.125   0.3125
V21     V     0.125   0.8125   0.125
V22     V     0.125   0.625   0.3125
V23     V     0.8125   0.125   0.125
V24     V     0.8125   0.625   0.625
V25     V     0.125   0.125   0.8125
V26     V     0.625   0.3125   0.125
V27     V     0.125   0.3125   0.625
V28     V     0.125   0.4375   0.125
V29     V     0.375   0.375   0.1875
V30     V     0.625   0.625   0.4375
V31     V     0.5625   0.375   0.375
V32     V     0.3125   0.125   0.625
V33     V     0.3125   0.625   0.125
V34     V     0.4375   0.125   0.125
V35     V     0.375   0.1875   0.375
V36     V     0.625   0.8125   0.625
V37     V     0.1875   0.375   0.375
V38     V     0.625   0.625   0.8125
V39     V     0.375   0.375   0.5625
V40     V     0.4375   0.625   0.625
V41     V     0.625   0.4375   0.625
V42     V     0.375   0.5625   0.375
V43     V     0.625   0.125   0.9375
V44     V     0.125   0.9375   0.625
V45     V     0.125   0.625   0.9375
V46     V     0.9375   0.625   0.125
V47     V     0.9375   0.125   0.625
V48     V     0.625   0.9375   0.125
loop_
_geom_bond_atom_site_label_1
_geom_bond_atom_site_label_2
_geom_bond_distance
_geom_bond_site_symmetry_2
_ccdc_geom_bond_type
V1     V44    10.0   .     S
V1     V2    10.0   .     S
V1     V4    10.0   1_565     S
V1     V32    10.0   1_565     S
V1     V6    10.0   .     S
V1     V3    10.0   .     S
V1     V36    10.0   .     S
V1     V40    10.0   .     S
V2     V44    10.0   .     S
V2     V45    10.0   .     S
V2     V3    10.0   .     S
V2     V4    10.0   1_565     S
V2     V5    10.0   1_556     S
V2     V21    10.0   1_556     S
V2     V25    10.0   1_565     S
V3     V45    10.0   .     S
V3     V5    10.0   1_556     S
V3     V33    10.0   1_556     S
V3     V38    10.0   .     S
V3     V6    10.0   .     S
V3     V40    10.0   .     S
V4     V5    10.0   1_546     S
V4     V34    10.0   1_556     S
V4     V6    10.0   1_545     S
V4     V1    10.0   1_545     S
V4     V2    10.0   1_545     S
V4     V43    10.0   .     S
V4     V32    10.0   .     S
V4     V25    10.0   .     S
V5     V4    10.0   1_564     S
V5     V34    10.0   1_565     S
V5     V3    10.0   1_554     S
V5     V6    10.0   1_554     S
V5     V2    10.0   1_554     S
V5     V48    10.0   .     S
V5     V21    10.0   .     S
V5     V33    10.0   .     S
V6     V4    10.0   1_565     S
V6     V5    10.0   1_556     S
V6     V48    10.0   1_556     S
V6     V43    10.0   1_565     S
V6     V36    10.0   .     S
V6     V38    10.0   .     S
V7     V47    10.0   .     S
V7     V8    10.0   .     S
V7     V10    10.0   1_655     S
V7     V27    10.0   1_655     S
V7     V12    10.0   .     S
V7     V41    10.0   .     S
V7     V9    10.0   .     S
V7     V24    10.0   .     S
V8     V47    10.0   .     S
V8     V43    10.0   .     S
V8     V9    10.0   .     S
V8     V10    10.0   1_655     S
V8     V11    10.0   1_556     S
V8     V23    10.0   1_556     S
V8     V25    10.0   1_655     S
V9     V43    10.0   .     S
V9     V11    10.0   1_556     S
V9     V26    10.0   1_556     S
V9     V38    10.0   .     S
V9     V12    10.0   .     S
V9     V41    10.0   .     S
V10     V11    10.0   1_456     S
V10     V28    10.0   1_556     S
V10     V12    10.0   1_455     S
V10     V7    10.0   1_455     S
V10     V8    10.0   1_455     S
V10     V45    10.0   .     S
V10     V25    10.0   .     S
V10     V27    10.0   .     S
V11     V10    10.0   1_654     S
V11     V28    10.0   1_655     S
V11     V12    10.0   1_554     S
V11     V9    10.0   1_554     S
V11     V8    10.0   1_554     S
V11     V46    10.0   .     S
V11     V26    10.0   .     S
V11     V23    10.0   .     S
V12     V10    10.0   1_655     S
V12     V11    10.0   1_556     S
V12     V46    10.0   1_556     S
V12     V45    10.0   1_655     S
V12     V24    10.0   .     S
V12     V38    10.0   .     S
V13     V48    10.0   .     S
V13     V15    10.0   .     S
V13     V46    10.0   .     S
V13     V14    10.0   .     S
V13     V16    10.0   1_655     S
V13     V17    10.0   1_565     S
V13     V21    10.0   1_655     S
V13     V23    10.0   1_565     S
V14     V46    10.0   .     S
V14     V16    10.0   1_655     S
V14     V22    10.0   1_655     S
V14     V24    10.0   .     S
V14     V18    10.0   .     S
V14     V15    10.0   .     S
V14     V30    10.0   .     S
V15     V48    10.0   .     S
V15     V17    10.0   1_565     S
V15     V20    10.0   1_565     S
V15     V30    10.0   .     S
V15     V36    10.0   .     S
V15     V18    10.0   .     S
V16     V18    10.0   1_455     S
V16     V13    10.0   1_455     S
V16     V14    10.0   1_455     S
V16     V44    10.0   .     S
V16     V17    10.0   1_465     S
V16     V19    10.0   1_565     S
V16     V22    10.0   .     S
V16     V21    10.0   .     S
V17     V15    10.0   1_545     S
V17     V18    10.0   1_545     S
V17     V13    10.0   1_545     S
V17     V47    10.0   .     S
V17     V16    10.0   1_645     S
V17     V19    10.0   1_655     S
V17     V20    10.0   .     S
V17     V23    10.0   .     S
V18     V16    10.0   1_655     S
V18     V17    10.0   1_565     S
V18     V47    10.0   1_565     S
V18     V44    10.0   1_655     S
V18     V36    10.0   .     S
V18     V24    10.0   .     S
V19     V16    10.0   1_545     S
V19     V17    10.0   1_455     S
V19     V44    10.0   1_545     S
V19     V47    10.0   1_455     S
V19     V32    10.0   .     S
V19     V27    10.0   .     S
V19     V35    10.0   .     S
V19     V37    10.0   .     S
V20     V15    10.0   1_545     S
V20     V48    10.0   1_545     S
V20     V34    10.0   .     S
V20     V23    10.0   .     S
V20     V26    10.0   .     S
V20     V35    10.0   .     S
V20     V31    10.0   .     S
V21     V2    10.0   1_554     S
V21     V13    10.0   1_455     S
V21     V46    10.0   1_455     S
V21     V33    10.0   .     S
V21     V45    10.0   1_554     S
V21     V22    10.0   .     S
V22     V14    10.0   1_455     S
V22     V46    10.0   1_455     S
V22     V28    10.0   .     S
V22     V33    10.0   .     S
V22     V42    10.0   .     S
V22     V37    10.0   .     S
V23     V8    10.0   1_554     S
V23     V13    10.0   1_545     S
V23     V48    10.0   1_545     S
V23     V43    10.0   1_554     S
V23     V26    10.0   .     S
V24     V30    10.0   .     S
V24     V38    10.0   .     S
V24     V41    10.0   .     S
V24     V36    10.0   .     S
V25     V2    10.0   1_545     S
V25     V8    10.0   1_455     S
V25     V47    10.0   1_455     S
V25     V27    10.0   .     S
V25     V44    10.0   1_545     S
V25     V32    10.0   .     S
V26     V9    10.0   1_554     S
V26     V43    10.0   1_554     S
V26     V29    10.0   .     S
V26     V34    10.0   .     S
V26     V31    10.0   .     S
V27     V7    10.0   1_455     S
V27     V47    10.0   1_455     S
V27     V37    10.0   .     S
V27     V32    10.0   .     S
V27     V39    10.0   .     S
V28     V11    10.0   1_455     S
V28     V10    10.0   1_554     S
V28     V46    10.0   1_455     S
V28     V45    10.0   1_554     S
V28     V37    10.0   .     S
V28     V29    10.0   .     S
V28     V33    10.0   .     S
V29     V31    10.0   .     S
V29     V35    10.0   .     S
V29     V37    10.0   .     S
V29     V42    10.0   .     S
V29     V33    10.0   .     S
V29     V34    10.0   .     S
V30     V36    10.0   .     S
V30     V31    10.0   .     S
V30     V41    10.0   .     S
V30     V40    10.0   .     S
V30     V42    10.0   .     S
V31     V42    10.0   .     S
V31     V41    10.0   .     S
V31     V39    10.0   .     S
V31     V35    10.0   .     S
V32     V1    10.0   1_545     S
V32     V44    10.0   1_545     S
V32     V35    10.0   .     S
V32     V39    10.0   .     S
V33     V3    10.0   1_554     S
V33     V45    10.0   1_554     S
V33     V42    10.0   .     S
V34     V4    10.0   1_554     S
V34     V5    10.0   1_545     S
V34     V43    10.0   1_554     S
V34     V48    10.0   1_545     S
V34     V35    10.0   .     S
V35     V39    10.0   .     S
V35     V37    10.0   .     S
V36     V38    10.0   .     S
V36     V40    10.0   .     S
V37     V39    10.0   .     S
V37     V42    10.0   .     S
V38     V40    10.0   .     S
V38     V41    10.0   .     S
V39     V40    10.0   .     S
V39     V42    10.0   .     S
V39     V41    10.0   .     S
V40     V41    10.0   .     S
V40     V42    10.0   .     S
V43     V6    10.0   1_545     S
V43     V26    10.0   1_556     S
V43     V23    10.0   1_556     S
V43     V34    10.0   1_556     S
V43     V48    10.0   1_546     S
V44     V18    10.0   1_455     S
V44     V19    10.0   1_565     S
V44     V47    10.0   1_465     S
V44     V32    10.0   1_565     S
V44     V25    10.0   1_565     S
V45     V12    10.0   1_455     S
V45     V28    10.0   1_556     S
V45     V46    10.0   1_456     S
V45     V33    10.0   1_556     S
V45     V21    10.0   1_556     S
V46     V12    10.0   1_554     S
V46     V22    10.0   1_655     S
V46     V21    10.0   1_655     S
V46     V28    10.0   1_655     S
V46     V45    10.0   1_654     S
V47     V18    10.0   1_545     S
V47     V19    10.0   1_655     S
V47     V44    10.0   1_645     S
V47     V25    10.0   1_655     S
V47     V27    10.0   1_655     S
V48     V6    10.0   1_554     S
V48     V20    10.0   1_565     S
V48     V23    10.0   1_565     S
V48     V34    10.0   1_565     S
V48     V43    10.0   1_564     S
