data_pyr
_audit_creation_date              2020-02-04
_audit_creation_method            'Pymatgen'
_symmetry_space_group_name_H-M    'P1'
_symmetry_Int_Tables_number       1
loop_
_symmetry_equiv_pos_as_xyz
  x,y,z
_cell_length_a                    24.4949
_cell_length_b                    24.4949
_cell_length_c                    24.4949
_cell_angle_alpha                 90.0
_cell_angle_beta                 90.0
_cell_angle_gamma                 90.0
loop_
_atom_site_label
_atom_site_type_symbol
_atom_site_fract_x
_atom_site_fract_y
_atom_site_fract_z
V1     V     0.8333   0.8333   0.8333
V2     V     0.8333   0.6667   0.3333
Er3     Er     0.0   0.5   0.0
V4     V     0.6667   0.3333   0.8333
Er5     Er     0.5   0.0   0.0
V6     V     0.1667   0.1667   0.1667
V7     V     0.3333   0.8333   0.6667
Er8     Er     0.0   0.0   0.5
V9     V     0.6667   0.1667   0.3333
V10     V     0.1667   0.3333   0.6667
V11     V     0.3333   0.6667   0.1667
Er12     Er     0.5   0.5   0.5
loop_
_geom_bond_atom_site_label_1
_geom_bond_atom_site_label_2
_geom_bond_distance
_geom_bond_site_symmetry_2
_ccdc_geom_bond_type
V1     Er8    10.0   1_665     S
V1     Er5    10.0   1_566     S
V1     Er3    10.0   1_656     S
V2     Er12    10.0   .     S
V2     Er8    10.0   1_665     S
V2     Er3    10.0   1_655     S
Er3     V1    10.0   1_454     S
Er3     V2    10.0   1_455     S
Er3     V4    10.0   1_454     S
Er3     V6    10.0   .     S
Er3     V10    10.0   1_554     S
Er3     V11    10.0   .     S
V4     Er12    10.0   .     S
V4     Er3    10.0   1_656     S
V4     Er5    10.0   1_556     S
Er5     V1    10.0   1_544     S
Er5     V4    10.0   1_554     S
Er5     V6    10.0   .     S
Er5     V7    10.0   1_544     S
Er5     V9    10.0   .     S
Er5     V11    10.0   1_545     S
V6     Er8    10.0   .     S
V7     Er12    10.0   .     S
V7     Er5    10.0   1_566     S
V7     Er8    10.0   1_565     S
Er8     V1    10.0   1_445     S
Er8     V2    10.0   1_445     S
Er8     V7    10.0   1_545     S
Er8     V9    10.0   1_455     S
Er8     V10    10.0   .     S
V9     Er8    10.0   1_655     S
V9     Er12    10.0   .     S
V10     Er3    10.0   1_556     S
V10     Er12    10.0   .     S
V11     Er5    10.0   1_565     S
V11     Er12    10.0   .     S
