data_rht
_audit_creation_date              2020-02-04
_audit_creation_method            'Pymatgen'
_symmetry_space_group_name_H-M    'P1'
_symmetry_Int_Tables_number       1
loop_
_symmetry_equiv_pos_as_xyz
  x,y,z
_cell_length_a                    24.4949
_cell_length_b                    24.4949
_cell_length_c                    24.4949
_cell_angle_alpha                 90.0
_cell_angle_beta                 90.0
_cell_angle_gamma                 90.0
loop_
_atom_site_label
_atom_site_type_symbol
_atom_site_fract_x
_atom_site_fract_y
_atom_site_fract_z
V1     V     0.0   0.0   0.0
Er2     Er     0.1667   0.1667   0.6667
Er3     Er     0.1667   0.6667   0.1667
Er4     Er     0.6667   0.1667   0.1667
V5     V     0.5   0.5   0.0
V6     V     0.5   0.0   0.5
Er7     Er     0.3333   0.6667   0.3333
V8     V     0.0   0.5   0.5
Er9     Er     0.6667   0.3333   0.3333
Er10     Er     0.1667   0.8333   0.3333
Er11     Er     0.1667   0.3333   0.8333
Er12     Er     0.6667   0.3333   0.6667
Er13     Er     0.6667   0.6667   0.3333
Er14     Er     0.8333   0.1667   0.3333
Er15     Er     0.3333   0.1667   0.8333
Er16     Er     0.3333   0.6667   0.6667
Er17     Er     0.8333   0.3333   0.1667
Er18     Er     0.3333   0.8333   0.1667
Er19     Er     0.3333   0.3333   0.6667
Er20     Er     0.1667   0.8333   0.6667
Er21     Er     0.8333   0.8333   0.3333
Er22     Er     0.8333   0.1667   0.6667
Er23     Er     0.6667   0.8333   0.1667
Er24     Er     0.3333   0.8333   0.8333
Er25     Er     0.6667   0.1667   0.8333
Er26     Er     0.1667   0.6667   0.8333
Er27     Er     0.8333   0.3333   0.8333
Er28     Er     0.8333   0.6667   0.1667
Er29     Er     0.6667   0.6667   0.6667
Er30     Er     0.8333   0.8333   0.6667
Er31     Er     0.8333   0.6667   0.8333
Er32     Er     0.6667   0.8333   0.8333
Er33     Er     0.1667   0.1667   0.3333
Er34     Er     0.3333   0.1667   0.1667
Er35     Er     0.1667   0.3333   0.1667
Er36     Er     0.3333   0.3333   0.3333
loop_
_geom_bond_atom_site_label_1
_geom_bond_atom_site_label_2
_geom_bond_distance
_geom_bond_site_symmetry_2
_ccdc_geom_bond_type
V1     Er30    10.0   1_444     S
V1     Er31    10.0   1_444     S
V1     Er32    10.0   1_444     S
V1     Er22    10.0   1_454     S
V1     Er27    10.0   1_454     S
V1     Er25    10.0   1_454     S
V1     Er11    10.0   1_554     S
V1     Er15    10.0   1_554     S
V1     Er2    10.0   1_554     S
V1     Er20    10.0   1_544     S
V1     Er24    10.0   1_544     S
V1     Er26    10.0   1_544     S
V1     Er10    10.0   1_545     S
V1     Er18    10.0   1_545     S
V1     Er3    10.0   1_545     S
V1     Er33    10.0   .     S
V1     Er34    10.0   .     S
V1     Er35    10.0   .     S
V1     Er21    10.0   1_445     S
V1     Er23    10.0   1_445     S
V1     Er28    10.0   1_445     S
V1     Er14    10.0   1_455     S
V1     Er17    10.0   1_455     S
V1     Er4    10.0   1_455     S
Er2     V1    10.0   1_556     S
Er2     V6    10.0   .     S
Er2     V8    10.0   .     S
Er3     V1    10.0   1_565     S
Er3     V5    10.0   .     S
Er3     V8    10.0   .     S
Er4     V1    10.0   1_655     S
Er4     V5    10.0   .     S
Er4     V6    10.0   .     S
V5     Er35    10.0   .     S
V5     Er34    10.0   .     S
V5     Er36    10.0   .     S
V5     Er15    10.0   1_554     S
V5     Er11    10.0   1_554     S
V5     Er19    10.0   1_554     S
V5     Er7    10.0   .     S
V5     Er18    10.0   .     S
V5     Er26    10.0   1_554     S
V5     Er24    10.0   1_554     S
V5     Er16    10.0   1_554     S
V5     Er9    10.0   .     S
V5     Er17    10.0   .     S
V5     Er27    10.0   1_554     S
V5     Er25    10.0   1_554     S
V5     Er12    10.0   1_554     S
V5     Er13    10.0   .     S
V5     Er28    10.0   .     S
V5     Er23    10.0   .     S
V5     Er32    10.0   1_554     S
V5     Er31    10.0   1_554     S
V5     Er29    10.0   1_554     S
V6     Er19    10.0   .     S
V6     Er15    10.0   .     S
V6     Er24    10.0   1_545     S
V6     Er20    10.0   1_545     S
V6     Er16    10.0   1_545     S
V6     Er22    10.0   .     S
V6     Er12    10.0   .     S
V6     Er25    10.0   .     S
V6     Er32    10.0   1_545     S
V6     Er30    10.0   1_545     S
V6     Er29    10.0   1_545     S
V6     Er9    10.0   .     S
V6     Er14    10.0   .     S
V6     Er23    10.0   1_545     S
V6     Er21    10.0   1_545     S
V6     Er13    10.0   1_545     S
V6     Er34    10.0   .     S
V6     Er33    10.0   .     S
V6     Er36    10.0   .     S
V6     Er18    10.0   1_545     S
V6     Er10    10.0   1_545     S
V6     Er7    10.0   1_545     S
Er7     V6    10.0   1_565     S
Er7     V8    10.0   .     S
V8     Er10    10.0   .     S
V8     Er28    10.0   1_455     S
V8     Er21    10.0   1_455     S
V8     Er13    10.0   1_455     S
V8     Er35    10.0   .     S
V8     Er33    10.0   .     S
V8     Er36    10.0   .     S
V8     Er17    10.0   1_455     S
V8     Er14    10.0   1_455     S
V8     Er9    10.0   1_455     S
V8     Er16    10.0   .     S
V8     Er20    10.0   .     S
V8     Er26    10.0   .     S
V8     Er31    10.0   1_455     S
V8     Er30    10.0   1_455     S
V8     Er29    10.0   1_455     S
V8     Er19    10.0   .     S
V8     Er11    10.0   .     S
V8     Er27    10.0   1_455     S
V8     Er22    10.0   1_455     S
V8     Er12    10.0   1_455     S
Er9     V8    10.0   1_655     S
Er10     V1    10.0   1_565     S
Er10     V6    10.0   1_565     S
Er11     V1    10.0   1_556     S
Er11     V5    10.0   1_556     S
Er12     V5    10.0   1_556     S
Er12     V8    10.0   1_655     S
Er13     V6    10.0   1_565     S
Er13     V8    10.0   1_655     S
Er14     V1    10.0   1_655     S
Er14     V8    10.0   1_655     S
Er15     V1    10.0   1_556     S
Er15     V5    10.0   1_556     S
Er16     V5    10.0   1_556     S
Er16     V6    10.0   1_565     S
Er17     V1    10.0   1_655     S
Er17     V8    10.0   1_655     S
Er18     V1    10.0   1_565     S
Er18     V6    10.0   1_565     S
Er19     V5    10.0   1_556     S
Er20     V1    10.0   1_566     S
Er20     V6    10.0   1_565     S
Er21     V1    10.0   1_665     S
Er21     V6    10.0   1_565     S
Er21     V8    10.0   1_655     S
Er22     V1    10.0   1_656     S
Er22     V8    10.0   1_655     S
Er23     V1    10.0   1_665     S
Er23     V6    10.0   1_565     S
Er24     V1    10.0   1_566     S
Er24     V5    10.0   1_556     S
Er24     V6    10.0   1_565     S
Er25     V1    10.0   1_656     S
Er25     V5    10.0   1_556     S
Er26     V1    10.0   1_566     S
Er26     V5    10.0   1_556     S
Er27     V1    10.0   1_656     S
Er27     V5    10.0   1_556     S
Er27     V8    10.0   1_655     S
Er28     V1    10.0   1_665     S
Er28     V8    10.0   1_655     S
Er29     V5    10.0   1_556     S
Er29     V6    10.0   1_565     S
Er29     V8    10.0   1_655     S
Er30     V1    10.0   1_666     S
Er30     V6    10.0   1_565     S
Er30     V8    10.0   1_655     S
Er31     V1    10.0   1_666     S
Er31     V5    10.0   1_556     S
Er31     V8    10.0   1_655     S
Er32     V1    10.0   1_666     S
Er32     V5    10.0   1_556     S
Er32     V6    10.0   1_565     S
