data_rhtxa
_audit_creation_date              2020-02-04
_audit_creation_method            'Pymatgen'
_symmetry_space_group_name_H-M    'P1'
_symmetry_Int_Tables_number       1
loop_
_symmetry_equiv_pos_as_xyz
  x,y,z
_cell_length_a                    68.7362
_cell_length_b                    68.7362
_cell_length_c                    68.7362
_cell_angle_alpha                 90.0
_cell_angle_beta                 90.0
_cell_angle_gamma                 90.0
loop_
_atom_site_label
_atom_site_type_symbol
_atom_site_fract_x
_atom_site_fract_y
_atom_site_fract_z
Ti1     Ti     0.3025   0.5   0.6975
Ti2     Ti     0.5   0.6975   0.6975
Ti3     Ti     0.6975   0.5   0.6975
Ti4     Ti     0.5   0.3025   0.6975
Ti5     Ti     0.6975   0.5   0.3025
Ti6     Ti     0.5   0.3025   0.3025
Ti7     Ti     0.3025   0.5   0.3025
Ti8     Ti     0.5   0.6975   0.3025
Ti9     Ti     0.3025   0.0   0.8025
Ti10     Ti     0.6975   0.0   0.8025
Ti11     Ti     0.5   0.8025   0.8025
Ti12     Ti     0.0   0.6975   0.8025
Ti13     Ti     0.6975   0.6975   0.5
Ti14     Ti     0.3025   0.3025   0.5
Ti15     Ti     0.6975   0.3025   0.5
Ti16     Ti     0.8025   0.8025   0.5
Ti17     Ti     0.3025   0.6975   0.5
Ti18     Ti     0.0   0.3025   0.8025
Ti19     Ti     0.8025   0.5   0.8025
Ti20     Ti     0.3025   0.8025   0.0
Ti21     Ti     0.8025   0.6975   0.0
Ti22     Ti     0.8025   0.0   0.3025
Ti23     Ti     0.0   0.8025   0.6975
Ti24     Ti     0.6975   0.8025   0.0
Ti25     Ti     0.8025   0.3025   0.0
Ti26     Ti     0.8025   0.0   0.6975
Ti27     Ti     0.0   0.8025   0.3025
Ti28     Ti     0.5   0.8025   0.1975
Ti29     Ti     0.8025   0.5   0.1975
Ti30     Ti     0.8025   0.1975   0.5
Ti31     Ti     0.5   0.1975   0.1975
Ti32     Ti     0.5   0.1975   0.8025
Ti33     Ti     0.1975   0.1975   0.5
Ti34     Ti     0.1975   0.8025   0.5
Ti35     Ti     0.1975   0.5   0.1975
Ti36     Ti     0.1975   0.5   0.8025
Ti37     Ti     0.6975   0.1975   0.0
Ti38     Ti     0.3025   0.1975   0.0
Ti39     Ti     0.1975   0.6975   0.0
Ti40     Ti     0.1975   0.3025   0.0
Ti41     Ti     0.0   0.6975   0.1975
Ti42     Ti     0.6975   0.0   0.1975
Ti43     Ti     0.0   0.3025   0.1975
Ti44     Ti     0.3025   0.0   0.1975
Ti45     Ti     0.0   0.1975   0.6975
Ti46     Ti     0.1975   0.0   0.6975
Ti47     Ti     0.1975   0.0   0.3025
Er48     Er     0.8198   0.0778   0.0778
Er49     Er     0.9222   0.1802   0.0778
Er50     Er     0.9222   0.0778   0.1802
V51     V     0.6753   0.0727   0.0727
V52     V     0.9273   0.0727   0.3247
V53     V     0.9273   0.3247   0.0727
Er54     Er     0.6802   0.0778   0.4222
Er55     Er     0.5778   0.0778   0.3198
Er56     Er     0.5778   0.1802   0.4222
V57     V     0.5727   0.0727   0.1753
V58     V     0.5727   0.3247   0.4273
V59     V     0.8247   0.0727   0.4273
Er60     Er     0.8198   0.4222   0.4222
Er61     Er     0.9222   0.3198   0.4222
Er62     Er     0.9222   0.4222   0.3198
V63     V     0.6753   0.4273   0.4273
V64     V     0.9273   0.4273   0.1753
V65     V     0.9273   0.1753   0.4273
Er66     Er     0.6802   0.4222   0.0778
Er67     Er     0.5778   0.3198   0.0778
Er68     Er     0.5778   0.4222   0.1802
V69     V     0.5727   0.4273   0.3247
V70     V     0.5727   0.1753   0.0727
V71     V     0.8247   0.4273   0.0727
Er72     Er     0.6802   0.9222   0.4222
Er73     Er     0.5778   0.9222   0.3198
Er74     Er     0.5778   0.8198   0.4222
V75     V     0.5727   0.6753   0.4273
V76     V     0.5727   0.9273   0.1753
V77     V     0.8247   0.9273   0.4273
Er78     Er     0.9222   0.6802   0.4222
Er79     Er     0.9222   0.5778   0.3198
Er80     Er     0.8198   0.5778   0.4222
V81     V     0.6753   0.5727   0.4273
V82     V     0.9273   0.5727   0.1753
V83     V     0.9273   0.8247   0.4273
Er84     Er     0.6802   0.5778   0.0778
Er85     Er     0.5778   0.6802   0.0778
Er86     Er     0.5778   0.5778   0.1802
V87     V     0.5727   0.5727   0.3247
V88     V     0.5727   0.8247   0.0727
V89     V     0.8247   0.5727   0.0727
Er90     Er     0.9222   0.9222   0.1802
Er91     Er     0.9222   0.8198   0.0778
Er92     Er     0.8198   0.9222   0.0778
V93     V     0.6753   0.9273   0.0727
V94     V     0.9273   0.6753   0.0727
V95     V     0.9273   0.9273   0.3247
Er96     Er     0.5778   0.8198   0.5778
Er97     Er     0.5778   0.9222   0.6802
Er98     Er     0.6802   0.9222   0.5778
V99     V     0.5727   0.6753   0.5727
V100     V     0.8247   0.9273   0.5727
V101     V     0.5727   0.9273   0.8247
Er102     Er     0.5778   0.5778   0.8198
Er103     Er     0.5778   0.6802   0.9222
Er104     Er     0.6802   0.5778   0.9222
V105     V     0.5727   0.5727   0.6753
V106     V     0.8247   0.5727   0.9273
V107     V     0.5727   0.8247   0.9273
Er108     Er     0.8198   0.9222   0.9222
Er109     Er     0.9222   0.9222   0.8198
Er110     Er     0.9222   0.8198   0.9222
V111     V     0.9273   0.6753   0.9273
V112     V     0.9273   0.9273   0.6753
V113     V     0.6753   0.9273   0.9273
Er114     Er     0.8198   0.5778   0.5778
Er115     Er     0.9222   0.6802   0.5778
Er116     Er     0.9222   0.5778   0.6802
V117     V     0.6753   0.5727   0.5727
V118     V     0.9273   0.5727   0.8247
V119     V     0.9273   0.8247   0.5727
Er120     Er     0.9222   0.1802   0.9222
Er121     Er     0.8198   0.0778   0.9222
Er122     Er     0.9222   0.0778   0.8198
V123     V     0.9273   0.0727   0.6753
V124     V     0.6753   0.0727   0.9273
V125     V     0.9273   0.3247   0.9273
Er126     Er     0.6802   0.0778   0.5778
Er127     Er     0.5778   0.0778   0.6802
Er128     Er     0.5778   0.1802   0.5778
V129     V     0.5727   0.3247   0.5727
V130     V     0.5727   0.0727   0.8247
V131     V     0.8247   0.0727   0.5727
Er132     Er     0.6802   0.4222   0.9222
Er133     Er     0.5778   0.3198   0.9222
Er134     Er     0.5778   0.4222   0.8198
V135     V     0.5727   0.4273   0.6753
V136     V     0.5727   0.1753   0.9273
V137     V     0.8247   0.4273   0.9273
Er138     Er     0.9222   0.4222   0.6802
Er139     Er     0.9222   0.3198   0.5778
Er140     Er     0.8198   0.4222   0.5778
V141     V     0.6753   0.4273   0.5727
V142     V     0.9273   0.1753   0.5727
V143     V     0.9273   0.4273   0.8247
Er144     Er     0.0778   0.0778   0.8198
Er145     Er     0.1802   0.0778   0.9222
Er146     Er     0.0778   0.1802   0.9222
V147     V     0.0727   0.0727   0.6753
V148     V     0.0727   0.3247   0.9273
V149     V     0.3247   0.0727   0.9273
Er150     Er     0.4222   0.0778   0.6802
Er151     Er     0.3198   0.0778   0.5778
Er152     Er     0.4222   0.1802   0.5778
V153     V     0.4273   0.3247   0.5727
V154     V     0.1753   0.0727   0.5727
V155     V     0.4273   0.0727   0.8247
Er156     Er     0.0778   0.4222   0.6802
Er157     Er     0.0778   0.3198   0.5778
Er158     Er     0.1802   0.4222   0.5778
V159     V     0.0727   0.1753   0.5727
V160     V     0.3247   0.4273   0.5727
V161     V     0.0727   0.4273   0.8247
Er162     Er     0.4222   0.4222   0.8198
Er163     Er     0.4222   0.3198   0.9222
Er164     Er     0.3198   0.4222   0.9222
V165     V     0.4273   0.4273   0.6753
V166     V     0.1753   0.4273   0.9273
V167     V     0.4273   0.1753   0.9273
Er168     Er     0.1802   0.9222   0.9222
Er169     Er     0.0778   0.8198   0.9222
Er170     Er     0.0778   0.9222   0.8198
V171     V     0.0727   0.9273   0.6753
V172     V     0.0727   0.6753   0.9273
V173     V     0.3247   0.9273   0.9273
Er174     Er     0.0778   0.6802   0.5778
Er175     Er     0.0778   0.5778   0.6802
Er176     Er     0.1802   0.5778   0.5778
V177     V     0.3247   0.5727   0.5727
V178     V     0.0727   0.5727   0.8247
V179     V     0.0727   0.8247   0.5727
Er180     Er     0.4222   0.6802   0.9222
Er181     Er     0.3198   0.5778   0.9222
Er182     Er     0.4222   0.5778   0.8198
V183     V     0.4273   0.5727   0.6753
V184     V     0.1753   0.5727   0.9273
V185     V     0.4273   0.8247   0.9273
Er186     Er     0.4222   0.9222   0.6802
Er187     Er     0.3198   0.9222   0.5778
Er188     Er     0.4222   0.8198   0.5778
V189     V     0.4273   0.6753   0.5727
V190     V     0.1753   0.9273   0.5727
V191     V     0.4273   0.9273   0.8247
Er192     Er     0.0778   0.8198   0.0778
Er193     Er     0.1802   0.9222   0.0778
Er194     Er     0.0778   0.9222   0.1802
V195     V     0.0727   0.6753   0.0727
V196     V     0.0727   0.9273   0.3247
V197     V     0.3247   0.9273   0.0727
Er198     Er     0.4222   0.6802   0.0778
Er199     Er     0.3198   0.5778   0.0778
Er200     Er     0.4222   0.5778   0.1802
V201     V     0.4273   0.5727   0.3247
V202     V     0.1753   0.5727   0.0727
V203     V     0.4273   0.8247   0.0727
Er204     Er     0.0778   0.6802   0.4222
Er205     Er     0.0778   0.5778   0.3198
Er206     Er     0.1802   0.5778   0.4222
V207     V     0.0727   0.5727   0.1753
V208     V     0.3247   0.5727   0.4273
V209     V     0.0727   0.8247   0.4273
Er210     Er     0.4222   0.8198   0.4222
Er211     Er     0.4222   0.9222   0.3198
Er212     Er     0.3198   0.9222   0.4222
V213     V     0.4273   0.6753   0.4273
V214     V     0.1753   0.9273   0.4273
V215     V     0.4273   0.9273   0.1753
Er216     Er     0.1802   0.0778   0.0778
Er217     Er     0.0778   0.1802   0.0778
Er218     Er     0.0778   0.0778   0.1802
V219     V     0.0727   0.0727   0.3247
V220     V     0.3247   0.0727   0.0727
V221     V     0.0727   0.3247   0.0727
Er222     Er     0.3198   0.4222   0.0778
Er223     Er     0.4222   0.4222   0.1802
Er224     Er     0.4222   0.3198   0.0778
V225     V     0.4273   0.1753   0.0727
V226     V     0.4273   0.4273   0.3247
V227     V     0.1753   0.4273   0.0727
Er228     Er     0.4222   0.1802   0.4222
Er229     Er     0.4222   0.0778   0.3198
Er230     Er     0.3198   0.0778   0.4222
V231     V     0.1753   0.0727   0.4273
V232     V     0.4273   0.0727   0.1753
V233     V     0.4273   0.3247   0.4273
Er234     Er     0.1802   0.4222   0.4222
Er235     Er     0.0778   0.4222   0.3198
Er236     Er     0.0778   0.3198   0.4222
V237     V     0.0727   0.1753   0.4273
V238     V     0.0727   0.4273   0.1753
V239     V     0.3247   0.4273   0.4273
Ti240     Ti     0.0   0.1975   0.3025
loop_
_geom_bond_atom_site_label_1
_geom_bond_atom_site_label_2
_geom_bond_distance
_geom_bond_site_symmetry_2
_ccdc_geom_bond_type
Ti1     Ti36    10.211   .     S
Ti1     V160    10.043   .     S
Ti1     V165    10.043   .     S
Ti1     V177    10.043   .     S
Ti1     V183    10.043   .     S
Ti2     Ti11    10.211   .     S
Ti2     V189    10.043   .     S
Ti2     V183    10.043   .     S
Ti2     V99    10.043   .     S
Ti2     V105    10.043   .     S
Ti3     Ti19    10.211   .     S
Ti3     V117    10.043   .     S
Ti3     V105    10.043   .     S
Ti3     V141    10.043   .     S
Ti3     V135    10.043   .     S
Ti4     Ti32    10.211   .     S
Ti4     V129    10.043   .     S
Ti4     V135    10.043   .     S
Ti4     V153    10.043   .     S
Ti4     V165    10.043   .     S
Ti5     Ti29    10.211   .     S
Ti5     V63    10.043   .     S
Ti5     V69    10.043   .     S
Ti5     V81    10.043   .     S
Ti5     V87    10.043   .     S
Ti6     Ti31    10.211   .     S
Ti6     V233    10.043   .     S
Ti6     V226    10.043   .     S
Ti6     V58    10.043   .     S
Ti6     V69    10.043   .     S
Ti7     Ti35    10.211   .     S
Ti7     V208    10.043   .     S
Ti7     V201    10.043   .     S
Ti7     V239    10.043   .     S
Ti7     V226    10.043   .     S
Ti8     Ti28    10.211   .     S
Ti8     V75    10.043   .     S
Ti8     V87    10.043   .     S
Ti8     V213    10.043   .     S
Ti8     V201    10.043   .     S
Ti9     Ti46    10.211   .     S
Ti9     V173    10.043   1_545     S
Ti9     V191    10.043   1_545     S
Ti9     V149    10.043   .     S
Ti9     V155    10.043   .     S
Ti10     Ti26    10.211   .     S
Ti10     V113    10.043   1_545     S
Ti10     V101    10.043   1_545     S
Ti10     V124    10.043   .     S
Ti10     V130    10.043   .     S
Ti11     V191    10.043   .     S
Ti11     V185    10.043   .     S
Ti11     V101    10.043   .     S
Ti11     V107    10.043   .     S
Ti12     Ti23    10.211   .     S
Ti12     V111    10.043   1_455     S
Ti12     V118    10.043   1_455     S
Ti12     V172    10.043   .     S
Ti12     V178    10.043   .     S
Ti13     Ti16    10.211   .     S
Ti13     V117    10.043   .     S
Ti13     V99    10.043   .     S
Ti13     V81    10.043   .     S
Ti13     V75    10.043   .     S
Ti14     Ti33    10.211   .     S
Ti14     V160    10.043   .     S
Ti14     V153    10.043   .     S
Ti14     V239    10.043   .     S
Ti14     V233    10.043   .     S
Ti15     Ti30    10.211   .     S
Ti15     V63    10.043   .     S
Ti15     V58    10.043   .     S
Ti15     V141    10.043   .     S
Ti15     V129    10.043   .     S
Ti16     V83    10.043   .     S
Ti16     V77    10.043   .     S
Ti16     V119    10.043   .     S
Ti16     V100    10.043   .     S
Ti17     Ti34    10.211   .     S
Ti17     V208    10.043   .     S
Ti17     V213    10.043   .     S
Ti17     V177    10.043   .     S
Ti17     V189    10.043   .     S
Ti18     Ti45    10.211   .     S
Ti18     V125    10.043   1_455     S
Ti18     V143    10.043   1_455     S
Ti18     V148    10.043   .     S
Ti18     V161    10.043   .     S
Ti19     V118    10.043   .     S
Ti19     V106    10.043   .     S
Ti19     V143    10.043   .     S
Ti19     V137    10.043   .     S
Ti20     Ti39    10.211   .     S
Ti20     V173    10.043   1_554     S
Ti20     V185    10.043   1_554     S
Ti20     V197    10.043   .     S
Ti20     V203    10.043   .     S
Ti21     Ti24    10.211   .     S
Ti21     V111    10.043   1_554     S
Ti21     V106    10.043   1_554     S
Ti21     V94    10.043   .     S
Ti21     V89    10.043   .     S
Ti22     Ti42    10.211   .     S
Ti22     V95    10.043   1_545     S
Ti22     V77    10.043   1_545     S
Ti22     V52    10.043   .     S
Ti22     V59    10.043   .     S
Ti23     V112    10.043   1_455     S
Ti23     V119    10.043   1_455     S
Ti23     V171    10.043   .     S
Ti23     V179    10.043   .     S
Ti24     V113    10.043   1_554     S
Ti24     V107    10.043   1_554     S
Ti24     V93    10.043   .     S
Ti24     V88    10.043   .     S
Ti25     Ti37    10.211   .     S
Ti25     V125    10.043   1_554     S
Ti25     V137    10.043   1_554     S
Ti25     V53    10.043   .     S
Ti25     V71    10.043   .     S
Ti26     V112    10.043   1_545     S
Ti26     V100    10.043   1_545     S
Ti26     V123    10.043   .     S
Ti26     V131    10.043   .     S
Ti27     Ti41    10.211   .     S
Ti27     V95    10.043   1_455     S
Ti27     V83    10.043   1_455     S
Ti27     V196    10.043   .     S
Ti27     V209    10.043   .     S
Ti28     V215    10.043   .     S
Ti28     V203    10.043   .     S
Ti28     V76    10.043   .     S
Ti28     V88    10.043   .     S
Ti29     V82    10.043   .     S
Ti29     V89    10.043   .     S
Ti29     V64    10.043   .     S
Ti29     V71    10.043   .     S
Ti30     V65    10.043   .     S
Ti30     V59    10.043   .     S
Ti30     V142    10.043   .     S
Ti30     V131    10.043   .     S
Ti31     V232    10.043   .     S
Ti31     V225    10.043   .     S
Ti31     V57    10.043   .     S
Ti31     V70    10.043   .     S
Ti32     V130    10.043   .     S
Ti32     V136    10.043   .     S
Ti32     V155    10.043   .     S
Ti32     V167    10.043   .     S
Ti33     V237    10.043   .     S
Ti33     V231    10.043   .     S
Ti33     V159    10.043   .     S
Ti33     V154    10.043   .     S
Ti34     V179    10.043   .     S
Ti34     V190    10.043   .     S
Ti34     V209    10.043   .     S
Ti34     V214    10.043   .     S
Ti35     V207    10.043   .     S
Ti35     V202    10.043   .     S
Ti35     V238    10.043   .     S
Ti35     V227    10.043   .     S
Ti36     V161    10.043   .     S
Ti36     V166    10.043   .     S
Ti36     V178    10.043   .     S
Ti36     V184    10.043   .     S
Ti37     V51    10.043   .     S
Ti37     V70    10.043   .     S
Ti37     V124    10.043   1_554     S
Ti37     V136    10.043   1_554     S
Ti38     Ti40    10.211   .     S
Ti38     V149    10.043   1_554     S
Ti38     V167    10.043   1_554     S
Ti38     V220    10.043   .     S
Ti38     V225    10.043   .     S
Ti39     V172    10.043   1_554     S
Ti39     V184    10.043   1_554     S
Ti39     V195    10.043   .     S
Ti39     V202    10.043   .     S
Ti40     V221    10.043   .     S
Ti40     V227    10.043   .     S
Ti40     V148    10.043   1_554     S
Ti40     V166    10.043   1_554     S
Ti41     V195    10.043   .     S
Ti41     V207    10.043   .     S
Ti41     V94    10.043   1_455     S
Ti41     V82    10.043   1_455     S
Ti42     V93    10.043   1_545     S
Ti42     V76    10.043   1_545     S
Ti42     V51    10.043   .     S
Ti42     V57    10.043   .     S
Ti43     Ti240    10.211   .     S
Ti43     V53    10.043   1_455     S
Ti43     V64    10.043   1_455     S
Ti43     V221    10.043   .     S
Ti43     V238    10.043   .     S
Ti44     Ti47    10.211   .     S
Ti44     V220    10.043   .     S
Ti44     V232    10.043   .     S
Ti44     V197    10.043   1_545     S
Ti44     V215    10.043   1_545     S
Ti45     V123    10.043   1_455     S
Ti45     V142    10.043   1_455     S
Ti45     V147    10.043   .     S
Ti45     V159    10.043   .     S
Ti46     V147    10.043   .     S
Ti46     V154    10.043   .     S
Ti46     V171    10.043   1_545     S
Ti46     V190    10.043   1_545     S
Ti47     V196    10.043   1_545     S
Ti47     V214    10.043   1_545     S
Ti47     V219    10.043   .     S
Ti47     V231    10.043   .     S
Er48     V51    9.948   .     S
Er48     Er50    9.948   .     S
Er48     Er49    9.948   .     S
Er49     V53    9.948   .     S
Er49     Er50    9.948   .     S
Er50     V52    9.948   .     S
V51     V70    9.969   .     S
V51     V57    9.969   .     S
V51     V124    9.997   1_554     S
V51     V93    9.997   1_545     S
V52     V59    9.969   .     S
V52     V65    9.969   .     S
V52     Ti240    10.043   1_655     S
V52     V95    9.997   1_545     S
V52     V219    9.997   1_655     S
V53     V71    9.969   .     S
V53     V64    9.969   .     S
V53     Ti43    10.043   1_655     S
V53     V125    9.997   1_554     S
V53     V221    9.997   1_655     S
Er54     V59    9.948   .     S
Er54     Er55    9.948   .     S
Er54     Er56    9.948   .     S
Er55     V57    9.948   .     S
Er55     Er56    9.948   .     S
Er56     V58    9.948   .     S
V57     V70    9.969   .     S
V57     V76    9.997   1_545     S
V57     V232    9.997   .     S
V58     V63    9.969   .     S
V58     V69    9.969   .     S
V58     V129    9.997   .     S
V58     V233    9.997   .     S
V59     V65    9.969   .     S
V59     V131    9.997   .     S
V59     V77    9.997   1_545     S
Er60     V63    9.948   .     S
Er60     Er62    9.948   .     S
Er60     Er61    9.948   .     S
Er61     V65    9.948   .     S
Er61     Er62    9.948   .     S
Er62     V64    9.948   .     S
V63     V69    9.969   .     S
V63     V141    9.997   .     S
V63     V81    9.997   .     S
V64     V71    9.969   .     S
V64     Ti43    10.043   1_655     S
V64     V82    9.997   .     S
V64     V238    9.997   1_655     S
V65     Ti240    10.043   1_655     S
V65     V142    9.997   .     S
V65     V237    9.997   1_655     S
Er66     V71    9.948   .     S
Er66     Er67    9.948   .     S
Er66     Er68    9.948   .     S
Er67     V70    9.948   .     S
Er67     Er68    9.948   .     S
Er68     V69    9.948   .     S
V69     V87    9.997   .     S
V69     V226    9.997   .     S
V70     V136    9.997   1_554     S
V70     V225    9.997   .     S
V71     V137    9.997   1_554     S
V71     V89    9.997   .     S
Er72     V77    9.948   .     S
Er72     Er73    9.948   .     S
Er72     Er74    9.948   .     S
Er73     V76    9.948   .     S
Er73     Er74    9.948   .     S
Er74     V75    9.948   .     S
V75     V81    9.969   .     S
V75     V87    9.969   .     S
V75     V99    9.997   .     S
V75     V213    9.997   .     S
V76     V93    9.969   .     S
V76     V88    9.969   .     S
V76     Ti42    10.043   1_565     S
V76     V57    9.997   1_565     S
V76     V215    9.997   .     S
V77     V83    9.969   .     S
V77     V95    9.969   .     S
V77     Ti22    10.043   1_565     S
V77     V100    9.997   .     S
V77     V59    9.997   1_565     S
Er78     V83    9.948   .     S
Er78     Er79    9.948   .     S
Er78     Er80    9.948   .     S
Er79     V82    9.948   .     S
Er79     Er80    9.948   .     S
Er80     V81    9.948   .     S
V81     V87    9.969   .     S
V81     V117    9.997   .     S
V82     V94    9.969   .     S
V82     V89    9.969   .     S
V82     Ti41    10.043   1_655     S
V82     V207    9.997   1_655     S
V83     V95    9.969   .     S
V83     Ti27    10.043   1_655     S
V83     V119    9.997   .     S
V83     V209    9.997   1_655     S
Er84     V89    9.948   .     S
Er84     Er86    9.948   .     S
Er84     Er85    9.948   .     S
Er85     V88    9.948   .     S
Er85     Er86    9.948   .     S
Er86     V87    9.948   .     S
V87     V201    9.997   .     S
V88     V93    9.969   .     S
V88     V107    9.997   1_554     S
V88     V203    9.997   .     S
V89     V94    9.969   .     S
V89     V106    9.997   1_554     S
Er90     V95    9.948   .     S
Er90     Er91    9.948   .     S
Er90     Er92    9.948   .     S
Er91     V94    9.948   .     S
Er91     Er92    9.948   .     S
Er92     V93    9.948   .     S
V93     Ti42    10.043   1_565     S
V93     V113    9.997   1_554     S
V93     V51    9.997   1_565     S
V94     Ti41    10.043   1_655     S
V94     V111    9.997   1_554     S
V94     V195    9.997   1_655     S
V95     Ti22    10.043   1_565     S
V95     Ti27    10.043   1_655     S
V95     V52    9.997   1_565     S
V95     V196    9.997   1_655     S
Er96     V99    9.948   .     S
Er96     Er97    9.948   .     S
Er96     Er98    9.948   .     S
Er97     V101    9.948   .     S
Er97     Er98    9.948   .     S
Er98     V100    9.948   .     S
V99     V117    9.969   .     S
V99     V105    9.969   .     S
V99     V189    9.997   .     S
V100     V112    9.969   .     S
V100     V119    9.969   .     S
V100     Ti26    10.043   1_565     S
V100     V131    9.997   1_565     S
V101     V113    9.969   .     S
V101     V107    9.969   .     S
V101     Ti10    10.043   1_565     S
V101     V130    9.997   1_565     S
V101     V191    9.997   .     S
Er102     V105    9.948   .     S
Er102     Er104    9.948   .     S
Er102     Er103    9.948   .     S
Er103     V107    9.948   .     S
Er103     Er104    9.948   .     S
Er104     V106    9.948   .     S
V105     V117    9.969   .     S
V105     V135    9.997   .     S
V105     V183    9.997   .     S
V106     V111    9.969   .     S
V106     V118    9.969   .     S
V106     Ti21    10.043   1_556     S
V106     V89    9.997   1_556     S
V106     V137    9.997   .     S
V107     V113    9.969   .     S
V107     Ti24    10.043   1_556     S
V107     V88    9.997   1_556     S
V107     V185    9.997   .     S
Er108     V113    9.948   .     S
Er108     Er109    9.948   .     S
Er108     Er110    9.948   .     S
Er109     V112    9.948   .     S
Er109     Er110    9.948   .     S
Er110     V111    9.948   .     S
V111     V118    9.969   .     S
V111     Ti12    10.043   1_655     S
V111     Ti21    10.043   1_556     S
V111     V94    9.997   1_556     S
V111     V172    9.997   1_655     S
V112     V119    9.969   .     S
V112     Ti23    10.043   1_655     S
V112     Ti26    10.043   1_565     S
V112     V123    9.997   1_565     S
V112     V171    9.997   1_655     S
V113     Ti10    10.043   1_565     S
V113     Ti24    10.043   1_556     S
V113     V93    9.997   1_556     S
V113     V124    9.997   1_565     S
Er114     V117    9.948   .     S
Er114     Er116    9.948   .     S
Er114     Er115    9.948   .     S
Er115     V119    9.948   .     S
Er115     Er116    9.948   .     S
Er116     V118    9.948   .     S
V117     V141    9.997   .     S
V118     Ti12    10.043   1_655     S
V118     V143    9.997   .     S
V118     V178    9.997   1_655     S
V119     Ti23    10.043   1_655     S
V119     V179    9.997   1_655     S
Er120     V125    9.948   .     S
Er120     Er121    9.948   .     S
Er120     Er122    9.948   .     S
Er121     V124    9.948   .     S
Er121     Er122    9.948   .     S
Er122     V123    9.948   .     S
V123     V131    9.969   .     S
V123     V142    9.969   .     S
V123     Ti45    10.043   1_655     S
V123     V147    9.997   1_655     S
V123     V112    9.997   1_545     S
V124     V130    9.969   .     S
V124     V136    9.969   .     S
V124     Ti37    10.043   1_556     S
V124     V51    9.997   1_556     S
V124     V113    9.997   1_545     S
V125     V143    9.969   .     S
V125     V137    9.969   .     S
V125     Ti18    10.043   1_655     S
V125     Ti25    10.043   1_556     S
V125     V53    9.997   1_556     S
V125     V148    9.997   1_655     S
Er126     V131    9.948   .     S
Er126     Er128    9.948   .     S
Er126     Er127    9.948   .     S
Er127     V130    9.948   .     S
Er127     Er128    9.948   .     S
Er128     V129    9.948   .     S
V129     V141    9.969   .     S
V129     V135    9.969   .     S
V129     V153    9.997   .     S
V130     V136    9.969   .     S
V130     V155    9.997   .     S
V130     V101    9.997   1_545     S
V131     V142    9.969   .     S
V131     V100    9.997   1_545     S
Er132     V137    9.948   .     S
Er132     Er133    9.948   .     S
Er132     Er134    9.948   .     S
Er133     V136    9.948   .     S
Er133     Er134    9.948   .     S
Er134     V135    9.948   .     S
V135     V141    9.969   .     S
V135     V165    9.997   .     S
V136     Ti37    10.043   1_556     S
V136     V70    9.997   1_556     S
V136     V167    9.997   .     S
V137     V143    9.969   .     S
V137     Ti25    10.043   1_556     S
V137     V71    9.997   1_556     S
Er138     V143    9.948   .     S
Er138     Er139    9.948   .     S
Er138     Er140    9.948   .     S
Er139     V142    9.948   .     S
Er139     Er140    9.948   .     S
Er140     V141    9.948   .     S
V142     Ti45    10.043   1_655     S
V142     V159    9.997   1_655     S
V143     Ti18    10.043   1_655     S
V143     V161    9.997   1_655     S
Er144     V147    9.948   .     S
Er144     Er145    9.948   .     S
Er144     Er146    9.948   .     S
Er145     V149    9.948   .     S
Er145     Er146    9.948   .     S
Er146     V148    9.948   .     S
V147     V154    9.969   .     S
V147     V159    9.969   .     S
V147     V171    9.997   1_545     S
V147     V123    9.997   1_455     S
V148     V161    9.969   .     S
V148     V166    9.969   .     S
V148     Ti40    10.043   1_556     S
V148     V221    9.997   1_556     S
V148     V125    9.997   1_455     S
V149     V155    9.969   .     S
V149     V167    9.969   .     S
V149     Ti38    10.043   1_556     S
V149     V173    9.997   1_545     S
V149     V220    9.997   1_556     S
Er150     V155    9.948   .     S
Er150     Er151    9.948   .     S
Er150     Er152    9.948   .     S
Er151     V154    9.948   .     S
Er151     Er152    9.948   .     S
Er152     V153    9.948   .     S
V153     V165    9.969   .     S
V153     V160    9.969   .     S
V153     V233    9.997   .     S
V154     V159    9.969   .     S
V154     V231    9.997   .     S
V154     V190    9.997   1_545     S
V155     V167    9.969   .     S
V155     V191    9.997   1_545     S
Er156     V161    9.948   .     S
Er156     Er157    9.948   .     S
Er156     Er158    9.948   .     S
Er157     V159    9.948   .     S
Er157     Er158    9.948   .     S
Er158     V160    9.948   .     S
V159     V237    9.997   .     S
V159     V142    9.997   1_455     S
V160     V165    9.969   .     S
V160     V239    9.997   .     S
V160     V177    9.997   .     S
V161     V166    9.969   .     S
V161     V178    9.997   .     S
V161     V143    9.997   1_455     S
Er162     V165    9.948   .     S
Er162     Er164    9.948   .     S
Er162     Er163    9.948   .     S
Er163     V167    9.948   .     S
Er163     Er164    9.948   .     S
Er164     V166    9.948   .     S
V165     V183    9.997   .     S
V166     Ti40    10.043   1_556     S
V166     V227    9.997   1_556     S
V166     V184    9.997   .     S
V167     Ti38    10.043   1_556     S
V167     V225    9.997   1_556     S
Er168     V173    9.948   .     S
Er168     Er169    9.948   .     S
Er168     Er170    9.948   .     S
Er169     V172    9.948   .     S
Er169     Er170    9.948   .     S
Er170     V171    9.948   .     S
V171     V179    9.969   .     S
V171     V190    9.969   .     S
V171     Ti46    10.043   1_565     S
V171     V147    9.997   1_565     S
V171     V112    9.997   1_455     S
V172     V184    9.969   .     S
V172     V178    9.969   .     S
V172     Ti39    10.043   1_556     S
V172     V195    9.997   1_556     S
V172     V111    9.997   1_455     S
V173     V191    9.969   .     S
V173     V185    9.969   .     S
V173     Ti9    10.043   1_565     S
V173     Ti20    10.043   1_556     S
V173     V197    9.997   1_556     S
V173     V149    9.997   1_565     S
Er174     V179    9.948   .     S
Er174     Er176    9.948   .     S
Er174     Er175    9.948   .     S
Er175     V178    9.948   .     S
Er175     Er176    9.948   .     S
Er176     V177    9.948   .     S
V177     V183    9.969   .     S
V177     V189    9.969   .     S
V177     V208    9.997   .     S
V178     V184    9.969   .     S
V178     V118    9.997   1_455     S
V179     V190    9.969   .     S
V179     V209    9.997   .     S
V179     V119    9.997   1_455     S
Er180     V185    9.948   .     S
Er180     Er181    9.948   .     S
Er180     Er182    9.948   .     S
Er181     V184    9.948   .     S
Er181     Er182    9.948   .     S
Er182     V183    9.948   .     S
V183     V189    9.969   .     S
V184     Ti39    10.043   1_556     S
V184     V202    9.997   1_556     S
V185     V191    9.969   .     S
V185     Ti20    10.043   1_556     S
V185     V203    9.997   1_556     S
Er186     V191    9.948   .     S
Er186     Er187    9.948   .     S
Er186     Er188    9.948   .     S
Er187     V190    9.948   .     S
Er187     Er188    9.948   .     S
Er188     V189    9.948   .     S
V189     V213    9.997   .     S
V190     Ti46    10.043   1_565     S
V190     V214    9.997   .     S
V190     V154    9.997   1_565     S
V191     Ti9    10.043   1_565     S
V191     V155    9.997   1_565     S
Er192     V195    9.948   .     S
Er192     Er194    9.948   .     S
Er192     Er193    9.948   .     S
Er193     V197    9.948   .     S
Er193     Er194    9.948   .     S
Er194     V196    9.948   .     S
V195     V207    9.969   .     S
V195     V202    9.969   .     S
V195     V172    9.997   1_554     S
V195     V94    9.997   1_455     S
V196     V209    9.969   .     S
V196     V214    9.969   .     S
V196     Ti47    10.043   1_565     S
V196     V219    9.997   1_565     S
V196     V95    9.997   1_455     S
V197     V203    9.969   .     S
V197     V215    9.969   .     S
V197     Ti44    10.043   1_565     S
V197     V220    9.997   1_565     S
V197     V173    9.997   1_554     S
Er198     V203    9.948   .     S
Er198     Er199    9.948   .     S
Er198     Er200    9.948   .     S
Er199     V202    9.948   .     S
Er199     Er200    9.948   .     S
Er200     V201    9.948   .     S
V201     V213    9.969   .     S
V201     V208    9.969   .     S
V201     V226    9.997   .     S
V202     V207    9.969   .     S
V202     V184    9.997   1_554     S
V202     V227    9.997   .     S
V203     V215    9.969   .     S
V203     V185    9.997   1_554     S
Er204     V209    9.948   .     S
Er204     Er205    9.948   .     S
Er204     Er206    9.948   .     S
Er205     V207    9.948   .     S
Er205     Er206    9.948   .     S
Er206     V208    9.948   .     S
V207     V238    9.997   .     S
V207     V82    9.997   1_455     S
V208     V213    9.969   .     S
V208     V239    9.997   .     S
V209     V214    9.969   .     S
V209     V83    9.997   1_455     S
Er210     V213    9.948   .     S
Er210     Er211    9.948   .     S
Er210     Er212    9.948   .     S
Er211     V215    9.948   .     S
Er211     Er212    9.948   .     S
Er212     V214    9.948   .     S
V214     Ti47    10.043   1_565     S
V214     V231    9.997   1_565     S
V215     Ti44    10.043   1_565     S
V215     V232    9.997   1_565     S
Er216     V220    9.948   .     S
Er216     Er218    9.948   .     S
Er216     Er217    9.948   .     S
Er217     V221    9.948   .     S
Er217     Er218    9.948   .     S
Er218     V219    9.948   .     S
V219     V237    9.969   .     S
V219     V231    9.969   .     S
V219     Ti240    10.043   .     S
V219     V196    9.997   1_545     S
V219     V52    9.997   1_455     S
V220     V232    9.969   .     S
V220     V225    9.969   .     S
V220     V197    9.997   1_545     S
V220     V149    9.997   1_554     S
V221     V227    9.969   .     S
V221     V238    9.969   .     S
V221     V148    9.997   1_554     S
V221     V53    9.997   1_455     S
Er222     V227    9.948   .     S
Er222     Er223    9.948   .     S
Er222     Er224    9.948   .     S
Er223     V226    9.948   .     S
Er223     Er224    9.948   .     S
Er224     V225    9.948   .     S
V225     V232    9.969   .     S
V225     V167    9.997   1_554     S
V226     V239    9.969   .     S
V226     V233    9.969   .     S
V227     V238    9.969   .     S
V227     V166    9.997   1_554     S
Er228     V233    9.948   .     S
Er228     Er229    9.948   .     S
Er228     Er230    9.948   .     S
Er229     V232    9.948   .     S
Er229     Er230    9.948   .     S
Er230     V231    9.948   .     S
V231     V237    9.969   .     S
V231     V214    9.997   1_545     S
V232     V215    9.997   1_545     S
V233     V239    9.969   .     S
Er234     V239    9.948   .     S
Er234     Er235    9.948   .     S
Er234     Er236    9.948   .     S
Er235     V238    9.948   .     S
Er235     Er236    9.948   .     S
Er236     V237    9.948   .     S
V237     Ti240    10.043   .     S
V237     V65    9.997   1_455     S
V238     V64    9.997   1_455     S
Ti240     V52    10.043   1_455     S
Ti240     V65    10.043   1_455     S
