data_sas
_audit_creation_date              2020-02-04
_audit_creation_method            'Pymatgen'
_symmetry_space_group_name_H-M    'P1'
_symmetry_Int_Tables_number       1
loop_
_symmetry_equiv_pos_as_xyz
  x,y,z
_cell_length_a                    45.6991
_cell_length_b                    45.6991
_cell_length_c                    32.6459
_cell_angle_alpha                 90.0
_cell_angle_beta                 90.0
_cell_angle_gamma                 90.0
loop_
_atom_site_label
_atom_site_type_symbol
_atom_site_fract_x
_atom_site_fract_y
_atom_site_fract_z
Er1     Er     0.1094   0.3906   0.25
Er2     Er     0.8906   0.3906   0.25
Er3     Er     0.1094   0.6094   0.25
Er4     Er     0.8906   0.6094   0.25
Er5     Er     0.3906   0.1094   0.25
Er6     Er     0.3906   0.8906   0.25
Er7     Er     0.6094   0.1094   0.25
Er8     Er     0.6094   0.8906   0.25
V9     V     0.3906   0.2359   0.5
V10     V     0.6094   0.2359   0.5
V11     V     0.2359   0.6094   0.5
V12     V     0.2359   0.3906   0.5
V13     V     0.6094   0.7641   0.5
V14     V     0.3906   0.7641   0.5
V15     V     0.7641   0.3906   0.5
V16     V     0.7641   0.6094   0.5
Er17     Er     0.3906   0.1094   0.75
Er18     Er     0.3906   0.8906   0.75
Er19     Er     0.6094   0.1094   0.75
Er20     Er     0.6094   0.8906   0.75
Er21     Er     0.1094   0.3906   0.75
Er22     Er     0.8906   0.3906   0.75
Er23     Er     0.1094   0.6094   0.75
Er24     Er     0.8906   0.6094   0.75
V25     V     0.2641   0.8906   0.0
V26     V     0.2641   0.1094   0.0
V27     V     0.8906   0.2641   0.0
V28     V     0.1094   0.2641   0.0
V29     V     0.8906   0.7359   0.0
V30     V     0.1094   0.7359   0.0
V31     V     0.7359   0.8906   0.0
V32     V     0.7359   0.1094   0.0
loop_
_geom_bond_atom_site_label_1
_geom_bond_atom_site_label_2
_geom_bond_distance
_geom_bond_site_symmetry_2
_ccdc_geom_bond_type
Er1     V28    10.0   .     S
Er1     V12    10.0   .     S
Er1     Er2    10.0   1_455     S
Er1     Er3    10.0   .     S
Er2     V27    10.0   .     S
Er2     V15    10.0   .     S
Er2     Er1    10.0   1_655     S
Er2     Er4    10.0   .     S
Er3     V30    10.0   .     S
Er3     V11    10.0   .     S
Er3     Er4    10.0   1_455     S
Er4     V29    10.0   .     S
Er4     V16    10.0   .     S
Er4     Er3    10.0   1_655     S
Er5     V26    10.0   .     S
Er5     V9    10.0   .     S
Er5     Er6    10.0   1_545     S
Er5     Er7    10.0   .     S
Er6     V25    10.0   .     S
Er6     V14    10.0   .     S
Er6     Er5    10.0   1_565     S
Er6     Er8    10.0   .     S
Er7     V32    10.0   .     S
Er7     V10    10.0   .     S
Er7     Er8    10.0   1_545     S
Er8     V31    10.0   .     S
Er8     V13    10.0   .     S
Er8     Er7    10.0   1_565     S
V9     V10    10.0   .     S
V9     V12    10.0   .     S
V9     Er17    10.0   .     S
V10     V15    10.0   .     S
V10     Er19    10.0   .     S
V11     V12    10.0   .     S
V11     V14    10.0   .     S
V11     Er23    10.0   .     S
V12     Er21    10.0   .     S
V13     V14    10.0   .     S
V13     V16    10.0   .     S
V13     Er20    10.0   .     S
V14     Er18    10.0   .     S
V15     V16    10.0   .     S
V15     Er22    10.0   .     S
V16     Er24    10.0   .     S
Er17     V26    10.0   1_556     S
Er17     Er18    10.0   1_545     S
Er17     Er19    10.0   .     S
Er18     V25    10.0   1_556     S
Er18     Er17    10.0   1_565     S
Er18     Er20    10.0   .     S
Er19     V32    10.0   1_556     S
Er19     Er20    10.0   1_545     S
Er20     V31    10.0   1_556     S
Er20     Er19    10.0   1_565     S
Er21     V28    10.0   1_556     S
Er21     Er22    10.0   1_455     S
Er21     Er23    10.0   .     S
Er22     V27    10.0   1_556     S
Er22     Er21    10.0   1_655     S
Er22     Er24    10.0   .     S
Er23     V30    10.0   1_556     S
Er23     Er24    10.0   1_455     S
Er24     V29    10.0   1_556     S
Er24     Er23    10.0   1_655     S
V25     Er18    10.0   1_554     S
V25     V26    10.0   1_565     S
V25     V30    10.0   .     S
V26     Er17    10.0   1_554     S
V26     V25    10.0   1_545     S
V26     V28    10.0   .     S
V27     Er22    10.0   1_554     S
V27     V28    10.0   1_655     S
V27     V32    10.0   .     S
V28     Er21    10.0   1_554     S
V28     V27    10.0   1_455     S
V29     Er24    10.0   1_554     S
V29     V30    10.0   1_655     S
V29     V31    10.0   .     S
V30     Er23    10.0   1_554     S
V30     V29    10.0   1_455     S
V31     Er20    10.0   1_554     S
V31     V32    10.0   1_565     S
V32     Er19    10.0   1_554     S
V32     V31    10.0   1_545     S
