data_scg
_audit_creation_date              2020-02-04
_audit_creation_method            'Pymatgen'
_symmetry_space_group_name_H-M    'P1'
_symmetry_Int_Tables_number       1
loop_
_symmetry_equiv_pos_as_xyz
  x,y,z
_cell_length_a                    16.6383
_cell_length_b                    31.098
_cell_length_c                    17.3206
_cell_angle_alpha                 90.0
_cell_angle_beta                 107.9936
_cell_angle_gamma                 90.0
loop_
_atom_site_label
_atom_site_type_symbol
_atom_site_fract_x
_atom_site_fract_y
_atom_site_fract_z
V1     V     0.0   0.7588   0.75
Er2     Er     0.0   0.0804   0.75
V3     V     0.5   0.7412   0.25
Er4     Er     0.5   0.4196   0.25
V5     V     0.5   0.2588   0.75
Er6     Er     0.5   0.5804   0.75
V7     V     0.0   0.2412   0.25
Er8     Er     0.0   0.9196   0.25
loop_
_geom_bond_atom_site_label_1
_geom_bond_atom_site_label_2
_geom_bond_distance
_geom_bond_site_symmetry_2
_ccdc_geom_bond_type
V1     Er6    10.0   1_455     S
V1     Er8    10.0   .     S
V1     Er8    10.0   1_556     S
V1     Er2    10.0   1_565     S
V1     V3    10.0   1_455     S
V1     V3    10.0   1_556     S
V1     Er6    10.0   .     S
Er2     V7    10.0   .     S
Er2     Er8    10.0   1_545     S
Er2     V5    10.0   .     S
Er2     V7    10.0   1_556     S
Er2     Er8    10.0   1_546     S
Er2     V5    10.0   1_455     S
Er2     V1    10.0   1_545     S
V3     Er6    10.0   .     S
V3     Er8    10.0   1_655     S
V3     Er8    10.0   .     S
V3     Er4    10.0   .     S
V3     V1    10.0   1_655     S
V3     V1    10.0   1_554     S
V3     Er6    10.0   1_554     S
Er4     V5    10.0   .     S
Er4     Er6    10.0   .     S
Er4     V7    10.0   .     S
Er4     V5    10.0   1_554     S
Er4     Er6    10.0   1_554     S
Er4     V7    10.0   1_655     S
V5     Er2    10.0   1_655     S
V5     Er4    10.0   1_556     S
V5     Er6    10.0   .     S
V5     V7    10.0   1_656     S
V5     V7    10.0   .     S
Er6     V1    10.0   1_655     S
Er6     Er4    10.0   1_556     S
Er6     V3    10.0   1_556     S
V7     Er2    10.0   1_554     S
V7     Er4    10.0   1_455     S
V7     Er8    10.0   1_545     S
V7     V5    10.0   1_454     S
Er8     Er2    10.0   1_565     S
Er8     V3    10.0   1_455     S
Er8     Er2    10.0   1_564     S
Er8     V1    10.0   1_554     S
Er8     V7    10.0   1_565     S
