data_smp
_audit_creation_date              2020-02-04
_audit_creation_method            'Pymatgen'
_symmetry_space_group_name_H-M    'P1'
_symmetry_Int_Tables_number       1
loop_
_symmetry_equiv_pos_as_xyz
  x,y,z
_cell_length_a                    31.4626
_cell_length_b                    31.4626
_cell_length_c                    31.4626
_cell_angle_alpha                 90.0
_cell_angle_beta                 90.0
_cell_angle_gamma                 90.0
loop_
_atom_site_label
_atom_site_type_symbol
_atom_site_fract_x
_atom_site_fract_y
_atom_site_fract_z
V1     V     0.6936   0.6936   0.9183
V2     V     0.9183   0.6936   0.6936
V3     V     0.6936   0.9183   0.6936
V4     V     0.1936   0.1936   0.4183
V5     V     0.4183   0.1936   0.1936
V6     V     0.1936   0.4183   0.1936
V7     V     0.3064   0.6936   0.0817
V8     V     0.0817   0.6936   0.3064
V9     V     0.3064   0.9183   0.3064
V10     V     0.8064   0.5817   0.1936
V11     V     0.5817   0.8064   0.1936
V12     V     0.8064   0.8064   0.4183
V13     V     0.6936   0.0817   0.3064
V14     V     0.6936   0.3064   0.0817
V15     V     0.9183   0.3064   0.3064
V16     V     0.5817   0.1936   0.8064
V17     V     0.8064   0.1936   0.5817
V18     V     0.8064   0.4183   0.8064
V19     V     0.0817   0.3064   0.6936
V20     V     0.3064   0.0817   0.6936
V21     V     0.3064   0.3064   0.9183
V22     V     0.1936   0.5817   0.8064
V23     V     0.1936   0.8064   0.5817
V24     V     0.4183   0.8064   0.8064
loop_
_geom_bond_atom_site_label_1
_geom_bond_atom_site_label_2
_geom_bond_distance
_geom_bond_site_symmetry_2
_ccdc_geom_bond_type
V1     V24    10.0   .     S
V1     V3    10.0   .     S
V1     V18    10.0   .     S
V1     V2    10.0   .     S
V1     V10    10.0   1_556     S
V1     V11    10.0   1_556     S
V2     V12    10.0   .     S
V2     V3    10.0   .     S
V2     V18    10.0   .     S
V2     V22    10.0   1_655     S
V2     V23    10.0   1_655     S
V3     V12    10.0   .     S
V3     V24    10.0   .     S
V3     V16    10.0   1_565     S
V3     V17    10.0   1_565     S
V4     V15    10.0   1_455     S
V4     V6    10.0   .     S
V4     V9    10.0   1_545     S
V4     V5    10.0   .     S
V4     V19    10.0   .     S
V4     V20    10.0   .     S
V5     V21    10.0   1_554     S
V5     V6    10.0   .     S
V5     V9    10.0   1_545     S
V5     V13    10.0   .     S
V5     V14    10.0   .     S
V6     V21    10.0   1_554     S
V6     V15    10.0   1_455     S
V6     V7    10.0   .     S
V6     V8    10.0   .     S
V7     V9    10.0   .     S
V7     V11    10.0   .     S
V7     V8    10.0   .     S
V7     V24    10.0   1_554     S
V7     V22    10.0   1_554     S
V8     V9    10.0   .     S
V8     V23    10.0   .     S
V8     V12    10.0   1_455     S
V8     V10    10.0   1_455     S
V9     V4    10.0   1_565     S
V9     V5    10.0   1_565     S
V9     V23    10.0   .     S
V9     V11    10.0   .     S
V10     V12    10.0   .     S
V10     V8    10.0   1_655     S
V10     V1    10.0   1_554     S
V10     V11    10.0   .     S
V10     V15    10.0   .     S
V10     V14    10.0   .     S
V11     V12    10.0   .     S
V11     V13    10.0   1_565     S
V11     V1    10.0   1_554     S
V12     V8    10.0   1_655     S
V12     V13    10.0   1_565     S
V13     V12    10.0   1_545     S
V13     V11    10.0   1_545     S
V13     V15    10.0   .     S
V13     V17    10.0   .     S
V13     V14    10.0   .     S
V14     V15    10.0   .     S
V14     V18    10.0   1_554     S
V14     V16    10.0   1_554     S
V15     V4    10.0   1_655     S
V15     V6    10.0   1_655     S
V15     V17    10.0   .     S
V16     V18    10.0   .     S
V16     V14    10.0   1_556     S
V16     V3    10.0   1_545     S
V16     V17    10.0   .     S
V16     V21    10.0   .     S
V16     V20    10.0   .     S
V17     V18    10.0   .     S
V17     V19    10.0   1_655     S
V17     V3    10.0   1_545     S
V18     V14    10.0   1_556     S
V18     V19    10.0   1_655     S
V19     V18    10.0   1_455     S
V19     V17    10.0   1_455     S
V19     V21    10.0   .     S
V19     V22    10.0   .     S
V19     V20    10.0   .     S
V20     V21    10.0   .     S
V20     V24    10.0   1_545     S
V20     V23    10.0   1_545     S
V21     V5    10.0   1_556     S
V21     V6    10.0   1_556     S
V21     V22    10.0   .     S
V22     V24    10.0   .     S
V22     V7    10.0   1_556     S
V22     V2    10.0   1_455     S
V22     V23    10.0   .     S
V23     V24    10.0   .     S
V23     V20    10.0   1_565     S
V23     V2    10.0   1_455     S
V24     V7    10.0   1_556     S
V24     V20    10.0   1_565     S
