data_soa
_audit_creation_date              2020-02-04
_audit_creation_method            'Pymatgen'
_symmetry_space_group_name_H-M    'P1'
_symmetry_Int_Tables_number       1
loop_
_symmetry_equiv_pos_as_xyz
  x,y,z
_cell_length_a                    150.7645
_cell_length_b                    150.7645
_cell_length_c                    150.7645
_cell_angle_alpha                 90.0
_cell_angle_beta                 90.0
_cell_angle_gamma                 90.0
loop_
_atom_site_label
_atom_site_type_symbol
_atom_site_fract_x
_atom_site_fract_y
_atom_site_fract_z
S1     S     0.2778   0.1839   0.0192
S2     S     0.3161   0.2222   0.9808
S3     S     0.3161   0.2692   0.0278
S4     S     0.2778   0.2308   0.0661
S5     S     0.1839   0.2778   0.0192
S6     S     0.2222   0.3161   0.9808
S7     S     0.2308   0.2778   0.0661
S8     S     0.2692   0.3161   0.0278
S9     S     0.2222   0.2692   0.9339
S10     S     0.1839   0.2308   0.9722
S11     S     0.2692   0.2222   0.9339
S12     S     0.2308   0.1839   0.9722
S13     S     0.0192   0.7778   0.6839
S14     S     0.9808   0.8161   0.7222
S15     S     0.9722   0.6839   0.7308
S16     S     0.9339   0.7222   0.7692
S17     S     0.9722   0.7308   0.6839
S18     S     0.9339   0.7692   0.7222
S19     S     0.0192   0.6839   0.7778
S20     S     0.9808   0.7222   0.8161
S21     S     0.0278   0.8161   0.7692
S22     S     0.0661   0.7778   0.7308
S23     S     0.0278   0.7692   0.8161
S24     S     0.0661   0.7308   0.7778
S25     S     0.1839   0.0192   0.2778
S26     S     0.2222   0.9808   0.3161
S27     S     0.2308   0.0661   0.2778
S28     S     0.2692   0.0278   0.3161
S29     S     0.3161   0.0278   0.2692
S30     S     0.2778   0.0661   0.2308
S31     S     0.2778   0.0192   0.1839
S32     S     0.3161   0.9808   0.2222
S33     S     0.2692   0.9339   0.2222
S34     S     0.2308   0.9722   0.1839
S35     S     0.2222   0.9339   0.2692
S36     S     0.1839   0.9722   0.2308
S37     S     0.0192   0.1839   0.2778
S38     S     0.9808   0.2222   0.3161
S39     S     0.0661   0.2308   0.2778
S40     S     0.0278   0.2692   0.3161
S41     S     0.0661   0.2778   0.2308
S42     S     0.0278   0.3161   0.2692
S43     S     0.0192   0.2778   0.1839
S44     S     0.9808   0.3161   0.2222
S45     S     0.9339   0.2222   0.2692
S46     S     0.9722   0.1839   0.2308
S47     S     0.9339   0.2692   0.2222
S48     S     0.9722   0.2308   0.1839
S49     S     0.8161   0.2692   0.5278
S50     S     0.7778   0.2308   0.5661
S51     S     0.7308   0.2778   0.5661
S52     S     0.7692   0.3161   0.5278
S53     S     0.6839   0.2778   0.5192
S54     S     0.7222   0.3161   0.4808
S55     S     0.8161   0.2222   0.4808
S56     S     0.7778   0.1839   0.5192
S57     S     0.7692   0.2222   0.4339
S58     S     0.7308   0.1839   0.4722
S59     S     0.6839   0.2308   0.4722
S60     S     0.7222   0.2692   0.4339
S61     S     0.5661   0.7308   0.2778
S62     S     0.5278   0.7692   0.3161
S63     S     0.5192   0.6839   0.2778
S64     S     0.4808   0.7222   0.3161
S65     S     0.5278   0.8161   0.2692
S66     S     0.5661   0.7778   0.2308
S67     S     0.4808   0.8161   0.2222
S68     S     0.5192   0.7778   0.1839
S69     S     0.4339   0.7692   0.2222
S70     S     0.4722   0.7308   0.1839
S71     S     0.4722   0.6839   0.2308
S72     S     0.4339   0.7222   0.2692
S73     S     0.0278   0.9339   0.9808
S74     S     0.0661   0.9722   0.0192
S75     S     0.0661   0.0192   0.9722
S76     S     0.0278   0.9808   0.9339
S77     S     0.9808   0.0278   0.9339
S78     S     0.0192   0.0661   0.9722
S79     S     0.9339   0.0278   0.9808
S80     S     0.9722   0.0661   0.0192
S81     S     0.9808   0.9339   0.0278
S82     S     0.0192   0.9722   0.0661
S83     S     0.9339   0.9808   0.0278
S84     S     0.9722   0.0192   0.0661
S85     S     0.6839   0.0192   0.7778
S86     S     0.7222   0.9808   0.8161
S87     S     0.7692   0.0278   0.8161
S88     S     0.7308   0.0661   0.7778
S89     S     0.8161   0.0278   0.7692
S90     S     0.7778   0.0661   0.7308
S91     S     0.7778   0.0192   0.6839
S92     S     0.8161   0.9808   0.7222
S93     S     0.6839   0.9722   0.7308
S94     S     0.7222   0.9339   0.7692
S95     S     0.7308   0.9722   0.6839
S96     S     0.7692   0.9339   0.7222
S97     S     0.4722   0.2308   0.6839
S98     S     0.4339   0.2692   0.7222
S99     S     0.4339   0.2222   0.7692
S100     S     0.4722   0.1839   0.7308
S101     S     0.4808   0.2222   0.8161
S102     S     0.5192   0.1839   0.7778
S103     S     0.5661   0.2308   0.7778
S104     S     0.5278   0.2692   0.8161
S105     S     0.5192   0.2778   0.6839
S106     S     0.4808   0.3161   0.7222
S107     S     0.5661   0.2778   0.7308
S108     S     0.5278   0.3161   0.7692
S109     S     0.0192   0.5661   0.4722
S110     S     0.9808   0.5278   0.4339
S111     S     0.0278   0.4808   0.4339
S112     S     0.0661   0.5192   0.4722
S113     S     0.0278   0.4339   0.4808
S114     S     0.0661   0.4722   0.5192
S115     S     0.0192   0.4722   0.5661
S116     S     0.9808   0.4339   0.5278
S117     S     0.9722   0.5661   0.5192
S118     S     0.9339   0.5278   0.4808
S119     S     0.9339   0.4808   0.5278
S120     S     0.9722   0.5192   0.5661
S121     S     0.6839   0.7778   0.0192
S122     S     0.7222   0.8161   0.9808
S123     S     0.7692   0.8161   0.0278
S124     S     0.7308   0.7778   0.0661
S125     S     0.8161   0.7692   0.0278
S126     S     0.7778   0.7308   0.0661
S127     S     0.7778   0.6839   0.0192
S128     S     0.8161   0.7222   0.9808
S129     S     0.6839   0.7308   0.9722
S130     S     0.7222   0.7692   0.9339
S131     S     0.7692   0.7222   0.9339
S132     S     0.7308   0.6839   0.9722
S133     S     0.2308   0.6839   0.4722
S134     S     0.2692   0.7222   0.4339
S135     S     0.2778   0.6839   0.5192
S136     S     0.3161   0.7222   0.4808
S137     S     0.2778   0.7308   0.5661
S138     S     0.3161   0.7692   0.5278
S139     S     0.2222   0.7692   0.4339
S140     S     0.1839   0.7308   0.4722
S141     S     0.2308   0.7778   0.5661
S142     S     0.2692   0.8161   0.5278
S143     S     0.2222   0.8161   0.4808
S144     S     0.1839   0.7778   0.5192
S145     S     0.2778   0.5661   0.7308
S146     S     0.3161   0.5278   0.7692
S147     S     0.2778   0.5192   0.6839
S148     S     0.3161   0.4808   0.7222
S149     S     0.2692   0.5278   0.8161
S150     S     0.2308   0.5661   0.7778
S151     S     0.2222   0.4808   0.8161
S152     S     0.1839   0.5192   0.7778
S153     S     0.2222   0.4339   0.7692
S154     S     0.1839   0.4722   0.7308
S155     S     0.2308   0.4722   0.6839
S156     S     0.2692   0.4339   0.7222
S157     S     0.4339   0.0278   0.4808
S158     S     0.4722   0.0661   0.5192
S159     S     0.4339   0.9808   0.5278
S160     S     0.4722   0.0192   0.5661
S161     S     0.4808   0.0278   0.4339
S162     S     0.5192   0.0661   0.4722
S163     S     0.5661   0.0192   0.4722
S164     S     0.5278   0.9808   0.4339
S165     S     0.5661   0.9722   0.5192
S166     S     0.5278   0.9339   0.4808
S167     S     0.5192   0.9722   0.5661
S168     S     0.4808   0.9339   0.5278
S169     S     0.4722   0.5661   0.0192
S170     S     0.4339   0.5278   0.9808
S171     S     0.4339   0.4808   0.0278
S172     S     0.4722   0.5192   0.0661
S173     S     0.4808   0.4339   0.0278
S174     S     0.5192   0.4722   0.0661
S175     S     0.5661   0.4722   0.0192
S176     S     0.5278   0.4339   0.9808
S177     S     0.5192   0.5661   0.9722
S178     S     0.4808   0.5278   0.9339
S179     S     0.5661   0.5192   0.9722
S180     S     0.5278   0.4808   0.9339
Ti181     Ti     0.7304   0.2773   0.6834
Ti182     Ti     0.6834   0.2773   0.7304
Er183     Er     0.7509   0.3369   0.704
Er184     Er     0.704   0.3369   0.7509
He185     He     0.729   0.3593   0.6456
B186     B     0.6688   0.3746   0.6688
Li187     Li     0.6485   0.3149   0.6485
He188     He     0.6456   0.3593   0.729
H189     H     0.6249   0.2997   0.7086
H190     H     0.7086   0.2997   0.6249
Ti191     Ti     0.2773   0.5196   0.5666
Ti192     Ti     0.2773   0.5666   0.5196
Er193     Er     0.3369   0.546   0.4991
Er194     Er     0.3369   0.4991   0.546
He195     He     0.3593   0.6044   0.521
B196     B     0.3746   0.5812   0.5812
Li197     Li     0.3149   0.6015   0.6015
He198     He     0.3593   0.521   0.6044
H199     H     0.2997   0.5414   0.6251
H200     H     0.2997   0.6251   0.5414
Ti201     Ti     0.5196   0.6834   0.9727
Ti202     Ti     0.5666   0.7304   0.9727
Er203     Er     0.546   0.7509   0.9131
Er204     Er     0.4991   0.704   0.9131
He205     He     0.6044   0.729   0.8907
B206     B     0.5812   0.6688   0.8754
Li207     Li     0.6015   0.6485   0.9351
He208     He     0.521   0.6456   0.8907
H209     H     0.5414   0.6249   0.9503
H210     H     0.6251   0.7086   0.9503
Ti211     Ti     0.9727   0.5196   0.6834
Ti212     Ti     0.9727   0.5666   0.7304
Er213     Er     0.9131   0.546   0.7509
Er214     Er     0.9131   0.4991   0.704
He215     He     0.8907   0.6044   0.729
B216     B     0.8754   0.5812   0.6688
Li217     Li     0.9351   0.6015   0.6485
He218     He     0.8907   0.521   0.6456
H219     H     0.9503   0.5414   0.6249
H220     H     0.9503   0.6251   0.7086
Ti221     Ti     0.9727   0.7304   0.5666
Ti222     Ti     0.9727   0.6834   0.5196
Er223     Er     0.9131   0.704   0.4991
Er224     Er     0.9131   0.7509   0.546
He225     He     0.8907   0.6456   0.521
B226     B     0.8754   0.6688   0.5812
Li227     Li     0.9351   0.6485   0.6015
He228     He     0.8907   0.729   0.6044
H229     H     0.9503   0.7086   0.6251
H230     H     0.9503   0.6249   0.5414
Ti231     Ti     0.5666   0.5196   0.2773
Ti232     Ti     0.5196   0.5666   0.2773
Er233     Er     0.546   0.4991   0.3369
Er234     Er     0.4991   0.546   0.3369
He235     He     0.6044   0.521   0.3593
B236     B     0.5812   0.5812   0.3746
Li237     Li     0.6015   0.6015   0.3149
He238     He     0.521   0.6044   0.3593
H239     H     0.5414   0.6251   0.2997
H240     H     0.6251   0.5414   0.2997
Ti241     Ti     0.6834   0.9727   0.5196
Ti242     Ti     0.7304   0.9727   0.5666
Er243     Er     0.7509   0.9131   0.546
Er244     Er     0.704   0.9131   0.4991
He245     He     0.729   0.8907   0.6044
B246     B     0.6688   0.8754   0.5812
Li247     Li     0.6485   0.9351   0.6015
He248     He     0.6456   0.8907   0.521
H249     H     0.6249   0.9503   0.5414
H250     H     0.7086   0.9503   0.6251
Ti251     Ti     0.5196   0.2773   0.5666
Ti252     Ti     0.5666   0.2773   0.5196
Er253     Er     0.546   0.3369   0.4991
Er254     Er     0.4991   0.3369   0.546
He255     He     0.521   0.3593   0.6044
B256     B     0.5812   0.3746   0.5812
Li257     Li     0.6015   0.3149   0.6015
He258     He     0.6044   0.3593   0.521
H259     H     0.6251   0.2997   0.5414
H260     H     0.5414   0.2997   0.6251
Ti261     Ti     0.5196   0.9727   0.6834
Ti262     Ti     0.5666   0.9727   0.7304
Er263     Er     0.4991   0.9131   0.704
Er264     Er     0.546   0.9131   0.7509
He265     He     0.521   0.8907   0.6456
B266     B     0.5812   0.8754   0.6688
Li267     Li     0.6015   0.9351   0.6485
He268     He     0.6044   0.8907   0.729
H269     H     0.6251   0.9503   0.7086
H270     H     0.5414   0.9503   0.6249
Ti271     Ti     0.2773   0.7304   0.6834
Ti272     Ti     0.2773   0.6834   0.7304
Er273     Er     0.3369   0.7509   0.704
Er274     Er     0.3369   0.704   0.7509
He275     He     0.3593   0.6456   0.729
B276     B     0.3746   0.6688   0.6688
Li277     Li     0.3149   0.6485   0.6485
He278     He     0.3593   0.729   0.6456
H279     H     0.2997   0.7086   0.6249
H280     H     0.2997   0.6249   0.7086
Ti281     Ti     0.7304   0.5666   0.9727
Ti282     Ti     0.6834   0.5196   0.9727
Er283     Er     0.7509   0.546   0.9131
Er284     Er     0.704   0.4991   0.9131
He285     He     0.6456   0.521   0.8907
B286     B     0.6688   0.5812   0.8754
Li287     Li     0.6485   0.6015   0.9351
He288     He     0.729   0.6044   0.8907
H289     H     0.7086   0.6251   0.9503
H290     H     0.6249   0.5414   0.9503
Be291     Be     0.8157   0.6484   0.6016
Be292     Be     0.8157   0.6016   0.6484
Be293     Be     0.6016   0.8157   0.6484
Be294     Be     0.6484   0.8157   0.6016
Be295     Be     0.4343   0.6016   0.6016
Be296     Be     0.4343   0.6484   0.6484
Be297     Be     0.6016   0.6484   0.8157
Be298     Be     0.6484   0.6016   0.8157
Be299     Be     0.6484   0.4343   0.6484
Be300     Be     0.6016   0.4343   0.6016
Be301     Be     0.6484   0.6484   0.4343
Be302     Be     0.6016   0.6016   0.4343
Ce303     Ce     0.4692   0.6086   0.6883
Ce304     Ce     0.4692   0.5617   0.6414
V305     V     0.5313   0.5781   0.625
V306     V     0.5313   0.625   0.6719
Ce307     Ce     0.4692   0.6414   0.5617
Ce308     Ce     0.4692   0.6883   0.6086
V309     V     0.5313   0.6719   0.625
V310     V     0.5313   0.625   0.5781
Ce311     Ce     0.5617   0.7808   0.6086
Ce312     Ce     0.6086   0.7808   0.5617
V313     V     0.5781   0.7187   0.625
V314     V     0.625   0.7187   0.5781
Ce315     Ce     0.6883   0.7808   0.6414
Ce316     Ce     0.6414   0.7808   0.6883
V317     V     0.625   0.7187   0.6719
V318     V     0.6719   0.7187   0.625
Ce319     Ce     0.7808   0.6414   0.6883
Ce320     Ce     0.7808   0.6883   0.6414
V321     V     0.7187   0.6719   0.625
V322     V     0.7187   0.625   0.6719
Ce323     Ce     0.7808   0.6086   0.5617
Ce324     Ce     0.7808   0.5617   0.6086
V325     V     0.7187   0.5781   0.625
V326     V     0.7187   0.625   0.5781
Ce327     Ce     0.6086   0.6883   0.4692
Ce328     Ce     0.5617   0.6414   0.4692
V329     V     0.625   0.6719   0.5313
V330     V     0.5781   0.625   0.5313
Ce331     Ce     0.6883   0.6086   0.4692
Ce332     Ce     0.6414   0.5617   0.4692
V333     V     0.625   0.5781   0.5313
V334     V     0.6719   0.625   0.5313
Ce335     Ce     0.6883   0.4692   0.6086
Ce336     Ce     0.6414   0.4692   0.5617
V337     V     0.625   0.5313   0.5781
V338     V     0.6719   0.5313   0.625
V339     V     0.625   0.5313   0.6719
Ce340     Ce     0.6086   0.4692   0.6883
Ce341     Ce     0.5617   0.4692   0.6414
V342     V     0.5781   0.5313   0.625
V343     V     0.625   0.5781   0.7187
Ce344     Ce     0.6086   0.5617   0.7808
Ce345     Ce     0.5617   0.6086   0.7808
V346     V     0.5781   0.625   0.7187
Ce347     Ce     0.6414   0.6883   0.7808
Ce348     Ce     0.6883   0.6414   0.7808
V349     V     0.6719   0.625   0.7187
V350     V     0.625   0.6719   0.7187
Ti351     Ti     0.6834   0.7304   0.2773
Ti352     Ti     0.7304   0.6834   0.2773
Er353     Er     0.704   0.7509   0.3369
Er354     Er     0.7509   0.704   0.3369
He355     He     0.6456   0.729   0.3593
B356     B     0.6688   0.6688   0.3746
Li357     Li     0.6485   0.6485   0.3149
He358     He     0.729   0.6456   0.3593
H359     H     0.7086   0.6249   0.2997
H360     H     0.6249   0.7086   0.2997
Ti361     Ti     0.9727   0.2304   0.0666
Ti362     Ti     0.9727   0.1834   0.0196
Er363     Er     0.9131   0.2509   0.046
Er364     Er     0.9131   0.204   0.9991
He365     He     0.8907   0.1456   0.021
B366     B     0.8754   0.1688   0.0812
Li367     Li     0.9351   0.1485   0.1015
He368     He     0.8907   0.229   0.1044
H369     H     0.9503   0.1249   0.0414
H370     H     0.9503   0.2086   0.1251
Ti371     Ti     0.2773   0.1834   0.2304
Ti372     Ti     0.2773   0.2304   0.1834
Er373     Er     0.3369   0.204   0.2509
Er374     Er     0.3369   0.2509   0.204
He375     He     0.3593   0.229   0.1456
B376     B     0.3746   0.1688   0.1688
Li377     Li     0.3149   0.1485   0.1485
He378     He     0.3593   0.1456   0.229
H379     H     0.2997   0.1249   0.2086
H380     H     0.2997   0.2086   0.1249
Ti381     Ti     0.9727   0.0196   0.1834
Ti382     Ti     0.9727   0.0666   0.2304
Er383     Er     0.9131   0.9991   0.204
Er384     Er     0.9131   0.046   0.2509
He385     He     0.8907   0.1044   0.229
B386     B     0.8754   0.0812   0.1688
Li387     Li     0.9351   0.1015   0.1485
He388     He     0.8907   0.021   0.1456
H389     H     0.9503   0.1251   0.2086
H390     H     0.9503   0.0414   0.1249
Ti391     Ti     0.7304   0.4727   0.0666
Ti392     Ti     0.6834   0.4727   0.0196
Er393     Er     0.704   0.4131   0.9991
Er394     Er     0.7509   0.4131   0.046
He395     He     0.729   0.3907   0.1044
B396     B     0.6688   0.3754   0.0812
Li397     Li     0.6485   0.4351   0.1015
He398     He     0.6456   0.3907   0.021
H399     H     0.7086   0.4503   0.1251
H400     H     0.6249   0.4503   0.0414
Ti401     Ti     0.2773   0.0666   0.0196
Ti402     Ti     0.2773   0.0196   0.0666
Er403     Er     0.3369   0.046   0.9991
Er404     Er     0.3369   0.9991   0.046
He405     He     0.3593   0.1044   0.021
B406     B     0.3746   0.0812   0.0812
Li407     Li     0.3149   0.1015   0.1015
He408     He     0.3593   0.021   0.1044
H409     H     0.2997   0.0414   0.1251
H410     H     0.2997   0.1251   0.0414
Ti411     Ti     0.5196   0.1834   0.4727
Ti412     Ti     0.5666   0.2304   0.4727
Er413     Er     0.4991   0.204   0.4131
Er414     Er     0.546   0.2509   0.4131
He415     He     0.6044   0.229   0.3907
B416     B     0.5812   0.1688   0.3754
Li417     Li     0.6015   0.1485   0.4351
He418     He     0.521   0.1456   0.3907
H419     H     0.5414   0.1249   0.4503
H420     H     0.6251   0.2086   0.4503
Ti421     Ti     0.5196   0.4727   0.1834
Ti422     Ti     0.5666   0.4727   0.2304
Er423     Er     0.546   0.4131   0.2509
Er424     Er     0.4991   0.4131   0.204
He425     He     0.6044   0.3907   0.229
B426     B     0.5812   0.3754   0.1688
Li427     Li     0.6015   0.4351   0.1485
He428     He     0.521   0.3907   0.1456
H429     H     0.5414   0.4503   0.1249
H430     H     0.6251   0.4503   0.2086
Ti431     Ti     0.7304   0.0666   0.4727
Ti432     Ti     0.6834   0.0196   0.4727
Er433     Er     0.704   0.9991   0.4131
Er434     Er     0.7509   0.046   0.4131
He435     He     0.6456   0.021   0.3907
B436     B     0.6688   0.0812   0.3754
Li437     Li     0.6485   0.1015   0.4351
He438     He     0.729   0.1044   0.3907
H439     H     0.7086   0.1251   0.4503
H440     H     0.6249   0.0414   0.4503
Ti441     Ti     0.7304   0.7773   0.1834
Ti442     Ti     0.6834   0.7773   0.2304
Er443     Er     0.7509   0.8369   0.204
Er444     Er     0.704   0.8369   0.2509
He445     He     0.6456   0.8593   0.229
B446     B     0.6688   0.8746   0.1688
Li447     Li     0.6485   0.8149   0.1485
He448     He     0.729   0.8593   0.1456
H449     H     0.7086   0.7997   0.1249
H450     H     0.6249   0.7997   0.2086
Ti451     Ti     0.7304   0.1834   0.7773
Ti452     Ti     0.6834   0.2304   0.7773
Er453     Er     0.7509   0.204   0.8369
Er454     Er     0.704   0.2509   0.8369
He455     He     0.6456   0.229   0.8593
B456     B     0.6688   0.1688   0.8746
Li457     Li     0.6485   0.1485   0.8149
He458     He     0.729   0.1456   0.8593
H459     H     0.7086   0.1249   0.7997
H460     H     0.6249   0.2086   0.7997
Ti461     Ti     0.5196   0.7773   0.0666
Ti462     Ti     0.5666   0.7773   0.0196
Er463     Er     0.4991   0.8369   0.046
Er464     Er     0.546   0.8369   0.9991
He465     He     0.6044   0.8593   0.021
B466     B     0.5812   0.8746   0.0812
Li467     Li     0.6015   0.8149   0.1015
He468     He     0.521   0.8593   0.1044
H469     H     0.5414   0.7997   0.1251
H470     H     0.6251   0.7997   0.0414
Be471     Be     0.6484   0.9343   0.1484
Be472     Be     0.6016   0.9343   0.1016
Be473     Be     0.6484   0.1484   0.9343
Be474     Be     0.6016   0.1016   0.9343
Be475     Be     0.8157   0.1016   0.1484
Be476     Be     0.8157   0.1484   0.1016
Be477     Be     0.4343   0.1484   0.1484
Be478     Be     0.4343   0.1016   0.1016
Be479     Be     0.6484   0.3157   0.1016
Be480     Be     0.6016   0.3157   0.1484
Be481     Be     0.6016   0.1484   0.3157
Be482     Be     0.6484   0.1016   0.3157
Ce483     Ce     0.7808   0.1414   0.1883
Ce484     Ce     0.7808   0.1883   0.1414
V485     V     0.7187   0.1719   0.125
V486     V     0.7187   0.125   0.1719
Ce487     Ce     0.5617   0.1086   0.2808
Ce488     Ce     0.6086   0.0617   0.2808
V489     V     0.625   0.0781   0.2187
V490     V     0.5781   0.125   0.2187
Ce491     Ce     0.6883   0.1414   0.2808
Ce492     Ce     0.6414   0.1883   0.2808
V493     V     0.625   0.1719   0.2187
V494     V     0.6719   0.125   0.2187
Ce495     Ce     0.6086   0.2808   0.0617
Ce496     Ce     0.5617   0.2808   0.1086
V497     V     0.5781   0.2187   0.125
V498     V     0.625   0.2187   0.0781
Ce499     Ce     0.6883   0.2808   0.1414
Ce500     Ce     0.6414   0.2808   0.1883
V501     V     0.6719   0.2187   0.125
V502     V     0.625   0.2187   0.1719
Ce503     Ce     0.4692   0.1414   0.0617
Ce504     Ce     0.4692   0.1883   0.1086
V505     V     0.5313   0.1719   0.125
V506     V     0.5313   0.125   0.0781
V507     V     0.5313   0.125   0.1719
Ce508     Ce     0.4692   0.0617   0.1414
Ce509     Ce     0.4692   0.1086   0.1883
V510     V     0.5313   0.0781   0.125
V511     V     0.5781   0.125   0.0313
Ce512     Ce     0.5617   0.1414   0.9692
Ce513     Ce     0.6086   0.1883   0.9692
V514     V     0.625   0.1719   0.0313
V515     V     0.5781   0.0313   0.125
Ce516     Ce     0.6086   0.9692   0.1883
Ce517     Ce     0.5617   0.9692   0.1414
V518     V     0.625   0.0313   0.1719
Ce519     Ce     0.7808   0.1086   0.0617
Ce520     Ce     0.7808   0.0617   0.1086
V521     V     0.7187   0.0781   0.125
V522     V     0.7187   0.125   0.0781
V523     V     0.6719   0.0313   0.125
Ce524     Ce     0.6883   0.9692   0.1086
Ce525     Ce     0.6414   0.9692   0.0617
V526     V     0.625   0.0313   0.0781
V527     V     0.6719   0.125   0.0313
Ce528     Ce     0.6414   0.0617   0.9692
Ce529     Ce     0.6883   0.1086   0.9692
V530     V     0.625   0.0781   0.0313
Ti531     Ti     0.5196   0.0666   0.7773
Ti532     Ti     0.5666   0.0196   0.7773
Er533     Er     0.546   0.9991   0.8369
Er534     Er     0.4991   0.046   0.8369
He535     He     0.6044   0.021   0.8593
B536     B     0.5812   0.0812   0.8746
Li537     Li     0.6015   0.1015   0.8149
He538     He     0.521   0.1044   0.8593
H539     H     0.5414   0.1251   0.7997
H540     H     0.6251   0.0414   0.7997
Ti541     Ti     0.3166   0.7227   0.2696
Ti542     Ti     0.2696   0.7227   0.3166
Er543     Er     0.296   0.6631   0.2491
Er544     Er     0.2491   0.6631   0.296
He545     He     0.271   0.6407   0.3544
B546     B     0.3312   0.6254   0.3312
Li547     Li     0.3515   0.6851   0.3515
He548     He     0.3544   0.6407   0.271
H549     H     0.3751   0.7003   0.2914
H550     H     0.2914   0.7003   0.3751
Ti551     Ti     0.4804   0.4334   0.7227
Ti552     Ti     0.4334   0.4804   0.7227
Er553     Er     0.5009   0.454   0.6631
Er554     Er     0.454   0.5009   0.6631
He555     He     0.479   0.3956   0.6407
B556     B     0.4188   0.4188   0.6254
Li557     Li     0.3985   0.3985   0.6851
He558     He     0.3956   0.479   0.6407
H559     H     0.3749   0.4586   0.7003
H560     H     0.4586   0.3749   0.7003
Ti561     Ti     0.4334   0.7227   0.4804
Ti562     Ti     0.4804   0.7227   0.4334
Er563     Er     0.454   0.6631   0.5009
Er564     Er     0.5009   0.6631   0.454
He565     He     0.3956   0.6407   0.479
B566     B     0.4188   0.6254   0.4188
Li567     Li     0.3985   0.6851   0.3985
He568     He     0.479   0.6407   0.3956
H569     H     0.4586   0.7003   0.3749
H570     H     0.3749   0.7003   0.4586
Ti571     Ti     0.7227   0.4804   0.4334
Ti572     Ti     0.7227   0.4334   0.4804
Er573     Er     0.6631   0.5009   0.454
Er574     Er     0.6631   0.454   0.5009
He575     He     0.6407   0.479   0.3956
B576     B     0.6254   0.4188   0.4188
Li577     Li     0.6851   0.3985   0.3985
He578     He     0.6407   0.3956   0.479
H579     H     0.7003   0.3749   0.4586
H580     H     0.7003   0.4586   0.3749
Ti581     Ti     0.7227   0.2696   0.3166
Ti582     Ti     0.7227   0.3166   0.2696
Er583     Er     0.6631   0.296   0.2491
Er584     Er     0.6631   0.2491   0.296
He585     He     0.6407   0.3544   0.271
B586     B     0.6254   0.3312   0.3312
Li587     Li     0.6851   0.3515   0.3515
He588     He     0.6407   0.271   0.3544
H589     H     0.7003   0.2914   0.3751
H590     H     0.7003   0.3751   0.2914
Ti591     Ti     0.3166   0.2696   0.7227
Ti592     Ti     0.2696   0.3166   0.7227
Er593     Er     0.2491   0.296   0.6631
Er594     Er     0.296   0.2491   0.6631
He595     He     0.3544   0.271   0.6407
B596     B     0.3312   0.3312   0.6254
Li597     Li     0.3515   0.3515   0.6851
He598     He     0.271   0.3544   0.6407
H599     H     0.2914   0.3751   0.7003
H600     H     0.3751   0.2914   0.7003
Ti601     Ti     0.3166   0.0273   0.4804
Ti602     Ti     0.2696   0.0273   0.4334
Er603     Er     0.2491   0.0869   0.454
Er604     Er     0.296   0.0869   0.5009
He605     He     0.271   0.1093   0.3956
B606     B     0.3312   0.1246   0.4188
Li607     Li     0.3515   0.0649   0.3985
He608     He     0.3544   0.1093   0.479
H609     H     0.3751   0.0497   0.4586
H610     H     0.2914   0.0497   0.3749
Ti611     Ti     0.0273   0.2696   0.4334
Ti612     Ti     0.0273   0.3166   0.4804
Er613     Er     0.0869   0.2491   0.454
Er614     Er     0.0869   0.296   0.5009
He615     He     0.1093   0.271   0.3956
B616     B     0.1246   0.3312   0.4188
Li617     Li     0.0649   0.3515   0.3985
He618     He     0.1093   0.3544   0.479
H619     H     0.0497   0.3751   0.4586
H620     H     0.0497   0.2914   0.3749
Ti621     Ti     0.4334   0.0273   0.2696
Ti622     Ti     0.4804   0.0273   0.3166
Er623     Er     0.454   0.0869   0.2491
Er624     Er     0.5009   0.0869   0.296
He625     He     0.3956   0.1093   0.271
B626     B     0.4188   0.1246   0.3312
Li627     Li     0.3985   0.0649   0.3515
He628     He     0.479   0.1093   0.3544
H629     H     0.4586   0.0497   0.3751
H630     H     0.3749   0.0497   0.2914
Ti631     Ti     0.2696   0.4334   0.0273
Ti632     Ti     0.3166   0.4804   0.0273
Er633     Er     0.2491   0.454   0.0869
Er634     Er     0.296   0.5009   0.0869
He635     He     0.3544   0.479   0.1093
B636     B     0.3312   0.4188   0.1246
Li637     Li     0.3515   0.3985   0.0649
He638     He     0.271   0.3956   0.1093
H639     H     0.2914   0.3749   0.0497
H640     H     0.3751   0.4586   0.0497
Ti641     Ti     0.0273   0.4804   0.3166
Ti642     Ti     0.0273   0.4334   0.2696
Er643     Er     0.0869   0.454   0.2491
Er644     Er     0.0869   0.5009   0.296
He645     He     0.1093   0.3956   0.271
B646     B     0.1246   0.4188   0.3312
Li647     Li     0.0649   0.3985   0.3515
He648     He     0.1093   0.479   0.3544
H649     H     0.0497   0.3749   0.2914
H650     H     0.0497   0.4586   0.3751
Be651     Be     0.1843   0.3516   0.3984
Be652     Be     0.1843   0.3984   0.3516
Be653     Be     0.3516   0.1843   0.3984
Be654     Be     0.3984   0.1843   0.3516
Be655     Be     0.3984   0.3516   0.1843
Be656     Be     0.3516   0.3984   0.1843
Be657     Be     0.3984   0.3984   0.5657
Be658     Be     0.3516   0.3516   0.5657
Be659     Be     0.3516   0.5657   0.3516
Be660     Be     0.3984   0.5657   0.3984
Be661     Be     0.5657   0.3516   0.3516
Be662     Be     0.5657   0.3984   0.3984
V663     V     0.375   0.4687   0.3281
Ce664     Ce     0.4383   0.5308   0.3586
Ce665     Ce     0.3914   0.5308   0.3117
V666     V     0.4219   0.4687   0.375
V667     V     0.3281   0.4687   0.375
Ce668     Ce     0.3117   0.5308   0.3914
Ce669     Ce     0.3586   0.5308   0.4383
V670     V     0.375   0.4687   0.4219
V671     V     0.2813   0.375   0.4219
Ce672     Ce     0.2192   0.4383   0.3914
Ce673     Ce     0.2192   0.3914   0.4383
V674     V     0.2813   0.4219   0.375
V675     V     0.375   0.4219   0.2813
Ce676     Ce     0.3914   0.4383   0.2192
Ce677     Ce     0.4383   0.3914   0.2192
V678     V     0.4219   0.375   0.2813
V679     V     0.2813   0.375   0.3281
Ce680     Ce     0.2192   0.3117   0.3586
Ce681     Ce     0.2192   0.3586   0.3117
V682     V     0.2813   0.3281   0.375
V683     V     0.375   0.3281   0.2813
Ce684     Ce     0.3586   0.3117   0.2192
Ce685     Ce     0.3117   0.3586   0.2192
V686     V     0.3281   0.375   0.2813
V687     V     0.3281   0.2813   0.375
Ce688     Ce     0.3117   0.2192   0.3586
Ce689     Ce     0.3586   0.2192   0.3117
V690     V     0.375   0.2813   0.3281
Ce691     Ce     0.5308   0.4383   0.3586
Ce692     Ce     0.5308   0.3914   0.3117
V693     V     0.4687   0.375   0.3281
V694     V     0.4687   0.4219   0.375
V695     V     0.4219   0.2813   0.375
Ce696     Ce     0.4383   0.2192   0.3914
Ce697     Ce     0.3914   0.2192   0.4383
V698     V     0.375   0.2813   0.4219
V699     V     0.4687   0.3281   0.375
Ce700     Ce     0.5308   0.3586   0.4383
Ce701     Ce     0.5308   0.3117   0.3914
V702     V     0.4687   0.375   0.4219
Ce703     Ce     0.4383   0.3586   0.5308
Ce704     Ce     0.3914   0.3117   0.5308
V705     V     0.375   0.3281   0.4687
V706     V     0.4219   0.375   0.4687
V707     V     0.3281   0.375   0.4687
Ce708     Ce     0.3586   0.4383   0.5308
Ce709     Ce     0.3117   0.3914   0.5308
V710     V     0.375   0.4219   0.4687
Ti711     Ti     0.4804   0.3166   0.0273
Ti712     Ti     0.4334   0.2696   0.0273
Er713     Er     0.5009   0.296   0.0869
Er714     Er     0.454   0.2491   0.0869
He715     He     0.3956   0.271   0.1093
B716     B     0.4188   0.3312   0.1246
Li717     Li     0.3985   0.3515   0.0649
He718     He     0.479   0.3544   0.1093
H719     H     0.3749   0.2914   0.0497
H720     H     0.4586   0.3751   0.0497
Ti721     Ti     0.5273   0.3166   0.9804
Ti722     Ti     0.5273   0.2696   0.9334
Er723     Er     0.5869   0.296   0.0009
Er724     Er     0.5869   0.2491   0.954
He725     He     0.6093   0.271   0.8956
B726     B     0.6246   0.3312   0.9188
Li727     Li     0.5649   0.3515   0.8985
He728     He     0.6093   0.3544   0.979
H729     H     0.5497   0.3751   0.9586
H730     H     0.5497   0.2914   0.8749
Ti731     Ti     0.5273   0.4804   0.8166
Ti732     Ti     0.5273   0.4334   0.7696
Er733     Er     0.5869   0.454   0.7491
Er734     Er     0.5869   0.5009   0.796
He735     He     0.6093   0.479   0.8544
B736     B     0.6246   0.4188   0.8312
Li737     Li     0.5649   0.3985   0.8515
He738     He     0.6093   0.3956   0.771
H739     H     0.5497   0.3749   0.7914
H740     H     0.5497   0.4586   0.8751
Ti741     Ti     0.9334   0.2696   0.5273
Ti742     Ti     0.9804   0.3166   0.5273
Er743     Er     0.0009   0.296   0.5869
Er744     Er     0.954   0.2491   0.5869
He745     He     0.8956   0.271   0.6093
B746     B     0.9188   0.3312   0.6246
Li747     Li     0.8985   0.3515   0.5649
He748     He     0.979   0.3544   0.6093
H749     H     0.9586   0.3751   0.5497
H750     H     0.8749   0.2914   0.5497
Ti751     Ti     0.2227   0.4804   0.9334
Ti752     Ti     0.2227   0.4334   0.9804
Er753     Er     0.1631   0.454   0.0009
Er754     Er     0.1631   0.5009   0.954
He755     He     0.1407   0.479   0.8956
B756     B     0.1254   0.4188   0.9188
Li757     Li     0.1851   0.3985   0.8985
He758     He     0.1407   0.3956   0.979
H759     H     0.2003   0.3749   0.9586
H760     H     0.2003   0.4586   0.8749
Ti761     Ti     0.2227   0.3166   0.7696
Ti762     Ti     0.2227   0.2696   0.8166
Er763     Er     0.1631   0.296   0.7491
Er764     Er     0.1631   0.2491   0.796
He765     He     0.1407   0.271   0.8544
B766     B     0.1254   0.3312   0.8312
Li767     Li     0.1851   0.3515   0.8515
He768     He     0.1407   0.3544   0.771
H769     H     0.2003   0.3751   0.7914
H770     H     0.2003   0.2914   0.8751
Ti771     Ti     0.7696   0.3166   0.2227
Ti772     Ti     0.8166   0.2696   0.2227
Er773     Er     0.7491   0.296   0.1631
Er774     Er     0.796   0.2491   0.1631
He775     He     0.8544   0.271   0.1407
B776     B     0.8312   0.3312   0.1254
Li777     Li     0.8515   0.3515   0.1851
He778     He     0.771   0.3544   0.1407
H779     H     0.7914   0.3751   0.2003
H780     H     0.8751   0.2914   0.2003
Ti781     Ti     0.9334   0.4804   0.2227
Ti782     Ti     0.9804   0.4334   0.2227
Er783     Er     0.0009   0.454   0.1631
Er784     Er     0.954   0.5009   0.1631
He785     He     0.8956   0.479   0.1407
B786     B     0.9188   0.4188   0.1254
Li787     Li     0.8985   0.3985   0.1851
He788     He     0.979   0.3956   0.1407
H789     H     0.9586   0.3749   0.2003
H790     H     0.8749   0.4586   0.2003
Ti791     Ti     0.9334   0.7227   0.9804
Ti792     Ti     0.9804   0.7227   0.9334
Er793     Er     0.954   0.6631   0.0009
Er794     Er     0.0009   0.6631   0.954
He795     He     0.8956   0.6407   0.979
B796     B     0.9188   0.6254   0.9188
Li797     Li     0.8985   0.6851   0.8985
He798     He     0.979   0.6407   0.8956
H799     H     0.9586   0.7003   0.8749
H800     H     0.8749   0.7003   0.9586
Ti801     Ti     0.7696   0.7227   0.8166
Ti802     Ti     0.8166   0.7227   0.7696
Er803     Er     0.796   0.6631   0.7491
Er804     Er     0.7491   0.6631   0.796
He805     He     0.8544   0.6407   0.771
B806     B     0.8312   0.6254   0.8312
Li807     Li     0.8515   0.6851   0.8515
He808     He     0.771   0.6407   0.8544
H809     H     0.7914   0.7003   0.8751
H810     H     0.8751   0.7003   0.7914
Ti811     Ti     0.8166   0.0273   0.9804
Ti812     Ti     0.7696   0.0273   0.9334
Er813     Er     0.796   0.0869   0.0009
Er814     Er     0.7491   0.0869   0.954
He815     He     0.771   0.1093   0.8956
B816     B     0.8312   0.1246   0.9188
Li817     Li     0.8515   0.0649   0.8985
He818     He     0.8544   0.1093   0.979
H819     H     0.8751   0.0497   0.9586
H820     H     0.7914   0.0497   0.8749
Ti821     Ti     0.7696   0.4334   0.5273
Ti822     Ti     0.8166   0.4804   0.5273
Er823     Er     0.7491   0.454   0.5869
Er824     Er     0.796   0.5009   0.5869
He825     He     0.8544   0.479   0.6093
B826     B     0.8312   0.4188   0.6246
Li827     Li     0.8515   0.3985   0.5649
He828     He     0.771   0.3956   0.6093
H829     H     0.8751   0.4586   0.5497
H830     H     0.7914   0.3749   0.5497
Be831     Be     0.8516   0.1843   0.8984
Be832     Be     0.8984   0.1843   0.8516
Be833     Be     0.8984   0.3984   0.0657
Be834     Be     0.8516   0.3516   0.0657
Be835     Be     0.8516   0.5657   0.8516
Be836     Be     0.8984   0.5657   0.8984
Be837     Be     0.6843   0.3516   0.8984
Be838     Be     0.6843   0.3984   0.8516
Be839     Be     0.0657   0.3516   0.8516
Be840     Be     0.0657   0.3984   0.8984
Be841     Be     0.8516   0.3984   0.6843
Be842     Be     0.8984   0.3516   0.6843
V843     V     0.9687   0.375   0.9219
Ce844     Ce     0.0308   0.3117   0.8914
Ce845     Ce     0.0308   0.3586   0.9383
V846     V     0.9687   0.3281   0.875
V847     V     0.9687   0.375   0.8281
Ce848     Ce     0.0308   0.4383   0.8586
Ce849     Ce     0.0308   0.3914   0.8117
V850     V     0.9687   0.4219   0.875
Ce851     Ce     0.8914   0.4383   0.7192
Ce852     Ce     0.9383   0.3914   0.7192
V853     V     0.9219   0.375   0.7813
V854     V     0.875   0.4219   0.7813
V855     V     0.9219   0.4687   0.875
Ce856     Ce     0.8914   0.5308   0.8117
Ce857     Ce     0.9383   0.5308   0.8586
V858     V     0.875   0.4687   0.8281
V859     V     0.875   0.4687   0.9219
Ce860     Ce     0.8117   0.5308   0.8914
Ce861     Ce     0.8586   0.5308   0.9383
V862     V     0.8281   0.4687   0.875
Ce863     Ce     0.7192   0.4383   0.8914
Ce864     Ce     0.7192   0.3914   0.9383
V865     V     0.7813   0.375   0.9219
V866     V     0.7813   0.4219   0.875
V867     V     0.8281   0.375   0.9687
Ce868     Ce     0.8117   0.3914   0.0308
Ce869     Ce     0.8586   0.4383   0.0308
V870     V     0.875   0.4219   0.9687
V871     V     0.9219   0.375   0.9687
Ce872     Ce     0.8914   0.3117   0.0308
Ce873     Ce     0.9383   0.3586   0.0308
V874     V     0.875   0.3281   0.9687
Ce875     Ce     0.8117   0.3586   0.7192
Ce876     Ce     0.8586   0.3117   0.7192
V877     V     0.875   0.3281   0.7813
V878     V     0.8281   0.375   0.7813
Ce879     Ce     0.7192   0.3117   0.8586
Ce880     Ce     0.7192   0.3586   0.8117
V881     V     0.7813   0.375   0.8281
V882     V     0.7813   0.3281   0.875
V883     V     0.8281   0.2813   0.875
Ce884     Ce     0.8586   0.2192   0.8117
Ce885     Ce     0.8117   0.2192   0.8586
V886     V     0.875   0.2813   0.8281
V887     V     0.9219   0.2813   0.875
Ce888     Ce     0.8914   0.2192   0.9383
Ce889     Ce     0.9383   0.2192   0.8914
V890     V     0.875   0.2813   0.9219
Ti891     Ti     0.9334   0.0273   0.7696
Ti892     Ti     0.9804   0.0273   0.8166
Er893     Er     0.0009   0.0869   0.796
Er894     Er     0.954   0.0869   0.7491
He895     He     0.979   0.1093   0.8544
B896     B     0.9188   0.1246   0.8312
Li897     Li     0.8985   0.0649   0.8515
He898     He     0.8956   0.1093   0.771
H899     H     0.9586   0.0497   0.8751
H900     H     0.8749   0.0497   0.7914
Ti901     Ti     0.5273   0.9334   0.2696
Ti902     Ti     0.5273   0.9804   0.3166
Er903     Er     0.5869   0.0009   0.296
Er904     Er     0.5869   0.954   0.2491
He905     He     0.6093   0.8956   0.271
B906     B     0.6246   0.9188   0.3312
Li907     Li     0.5649   0.8985   0.3515
He908     He     0.6093   0.979   0.3544
H909     H     0.5497   0.9586   0.3751
H910     H     0.5497   0.8749   0.2914
Ti911     Ti     0.5273   0.8166   0.4804
Ti912     Ti     0.5273   0.7696   0.4334
Er913     Er     0.5869   0.7491   0.454
Er914     Er     0.5869   0.796   0.5009
He915     He     0.6093   0.8544   0.479
B916     B     0.6246   0.8312   0.4188
Li917     Li     0.5649   0.8515   0.3985
He918     He     0.6093   0.771   0.3956
H919     H     0.5497   0.8751   0.4586
H920     H     0.5497   0.7914   0.3749
Ti921     Ti     0.8166   0.5273   0.4804
Ti922     Ti     0.7696   0.5273   0.4334
Er923     Er     0.7491   0.5869   0.454
Er924     Er     0.796   0.5869   0.5009
He925     He     0.8544   0.6093   0.479
B926     B     0.8312   0.6246   0.4188
Li927     Li     0.8515   0.5649   0.3985
He928     He     0.771   0.6093   0.3956
H929     H     0.7914   0.5497   0.3749
H930     H     0.8751   0.5497   0.4586
Ti931     Ti     0.9334   0.5273   0.2696
Ti932     Ti     0.9804   0.5273   0.3166
Er933     Er     0.0009   0.5869   0.296
Er934     Er     0.954   0.5869   0.2491
He935     He     0.8956   0.6093   0.271
B936     B     0.9188   0.6246   0.3312
Li937     Li     0.8985   0.5649   0.3515
He938     He     0.979   0.6093   0.3544
H939     H     0.9586   0.5497   0.3751
H940     H     0.8749   0.5497   0.2914
Ti941     Ti     0.2227   0.7696   0.3166
Ti942     Ti     0.2227   0.8166   0.2696
Er943     Er     0.1631   0.7491   0.296
Er944     Er     0.1631   0.796   0.2491
He945     He     0.1407   0.8544   0.271
B946     B     0.1254   0.8312   0.3312
Li947     Li     0.1851   0.8515   0.3515
He948     He     0.1407   0.771   0.3544
H949     H     0.2003   0.7914   0.3751
H950     H     0.2003   0.8751   0.2914
Ti951     Ti     0.7696   0.2227   0.3166
Ti952     Ti     0.8166   0.2227   0.2696
Er953     Er     0.7491   0.1631   0.296
Er954     Er     0.796   0.1631   0.2491
He955     He     0.8544   0.1407   0.271
B956     B     0.8312   0.1254   0.3312
Li957     Li     0.8515   0.1851   0.3515
He958     He     0.771   0.1407   0.3544
H959     H     0.8751   0.2003   0.2914
H960     H     0.7914   0.2003   0.3751
Ti961     Ti     0.2227   0.9334   0.4804
Ti962     Ti     0.2227   0.9804   0.4334
Er963     Er     0.1631   0.0009   0.454
Er964     Er     0.1631   0.954   0.5009
He965     He     0.1407   0.8956   0.479
B966     B     0.1254   0.9188   0.4188
Li967     Li     0.1851   0.8985   0.3985
He968     He     0.1407   0.979   0.3956
H969     H     0.2003   0.9586   0.3749
H970     H     0.2003   0.8749   0.4586
Ti971     Ti     0.9334   0.2227   0.4804
Ti972     Ti     0.9804   0.2227   0.4334
Er973     Er     0.0009   0.1631   0.454
Er974     Er     0.954   0.1631   0.5009
He975     He     0.8956   0.1407   0.479
B976     B     0.9188   0.1254   0.4188
Li977     Li     0.8985   0.1851   0.3985
He978     He     0.979   0.1407   0.3956
H979     H     0.9586   0.2003   0.3749
H980     H     0.8749   0.2003   0.4586
Ti981     Ti     0.8166   0.7696   0.7227
Ti982     Ti     0.7696   0.8166   0.7227
Er983     Er     0.7491   0.796   0.6631
Er984     Er     0.796   0.7491   0.6631
He985     He     0.771   0.8544   0.6407
B986     B     0.8312   0.8312   0.6254
Li987     Li     0.8515   0.8515   0.6851
He988     He     0.8544   0.771   0.6407
H989     H     0.8751   0.7914   0.7003
H990     H     0.7914   0.8751   0.7003
Ti991     Ti     0.9804   0.9334   0.7227
Ti992     Ti     0.9334   0.9804   0.7227
Er993     Er     0.0009   0.954   0.6631
Er994     Er     0.954   0.0009   0.6631
He995     He     0.979   0.8956   0.6407
B996     B     0.9188   0.9188   0.6254
Li997     Li     0.8985   0.8985   0.6851
He998     He     0.8956   0.979   0.6407
H999     H     0.8749   0.9586   0.7003
H1000     H     0.9586   0.8749   0.7003
Ti1001     Ti     0.9804   0.8166   0.0273
Ti1002     Ti     0.9334   0.7696   0.0273
Er1003     Er     0.0009   0.796   0.0869
Er1004     Er     0.954   0.7491   0.0869
He1005     He     0.8956   0.771   0.1093
B1006     B     0.9188   0.8312   0.1246
Li1007     Li     0.8985   0.8515   0.0649
He1008     He     0.979   0.8544   0.1093
H1009     H     0.9586   0.8751   0.0497
H1010     H     0.8749   0.7914   0.0497
Be1011     Be     0.8516   0.8516   0.5657
Be1012     Be     0.8984   0.8984   0.5657
Be1013     Be     0.8984   0.8516   0.1843
Be1014     Be     0.8516   0.8984   0.1843
Be1015     Be     0.0657   0.8516   0.3516
Be1016     Be     0.0657   0.8984   0.3984
Be1017     Be     0.8516   0.6843   0.3984
Be1018     Be     0.8984   0.6843   0.3516
Be1019     Be     0.8984   0.0657   0.3984
Be1020     Be     0.8516   0.0657   0.3516
Be1021     Be     0.6843   0.8516   0.3984
Be1022     Be     0.6843   0.8984   0.3516
V1023     V     0.9219   0.875   0.4687
Ce1024     Ce     0.8914   0.8117   0.5308
Ce1025     Ce     0.9383   0.8586   0.5308
V1026     V     0.875   0.8281   0.4687
V1027     V     0.875   0.9219   0.4687
Ce1028     Ce     0.8117   0.8914   0.5308
Ce1029     Ce     0.8586   0.9383   0.5308
V1030     V     0.8281   0.875   0.4687
Ce1031     Ce     0.0308   0.8586   0.4383
Ce1032     Ce     0.0308   0.8117   0.3914
V1033     V     0.9687   0.8281   0.375
V1034     V     0.9687   0.875   0.4219
Ce1035     Ce     0.8914   0.7192   0.4383
Ce1036     Ce     0.9383   0.7192   0.3914
V1037     V     0.9219   0.7813   0.375
V1038     V     0.875   0.7813   0.4219
V1039     V     0.9687   0.9219   0.375
Ce1040     Ce     0.0308   0.8914   0.3117
Ce1041     Ce     0.0308   0.9383   0.3586
V1042     V     0.9687   0.875   0.3281
Ce1043     Ce     0.7192   0.8914   0.4383
Ce1044     Ce     0.7192   0.9383   0.3914
V1045     V     0.7813   0.875   0.4219
V1046     V     0.7813   0.9219   0.375
V1047     V     0.8281   0.9687   0.375
Ce1048     Ce     0.8586   0.0308   0.4383
Ce1049     Ce     0.8117   0.0308   0.3914
V1050     V     0.875   0.9687   0.4219
Ce1051     Ce     0.8586   0.7192   0.3117
Ce1052     Ce     0.8117   0.7192   0.3586
V1053     V     0.8281   0.7813   0.375
V1054     V     0.875   0.7813   0.3281
V1055     V     0.875   0.8281   0.2813
Ce1056     Ce     0.8117   0.8586   0.2192
Ce1057     Ce     0.8586   0.8117   0.2192
V1058     V     0.8281   0.875   0.2813
V1059     V     0.875   0.9219   0.2813
Ce1060     Ce     0.8914   0.9383   0.2192
Ce1061     Ce     0.9383   0.8914   0.2192
V1062     V     0.9219   0.875   0.2813
V1063     V     0.875   0.9687   0.3281
Ce1064     Ce     0.8914   0.0308   0.3117
Ce1065     Ce     0.9383   0.0308   0.3586
V1066     V     0.9219   0.9687   0.375
Ce1067     Ce     0.7192   0.8117   0.3586
Ce1068     Ce     0.7192   0.8586   0.3117
V1069     V     0.7813   0.875   0.3281
V1070     V     0.7813   0.8281   0.375
Ti1071     Ti     0.7696   0.9334   0.0273
Ti1072     Ti     0.8166   0.9804   0.0273
Er1073     Er     0.796   0.0009   0.0869
Er1074     Er     0.7491   0.954   0.0869
He1075     He     0.8544   0.979   0.1093
B1076     B     0.8312   0.9188   0.1246
Li1077     Li     0.8515   0.8985   0.0649
He1078     He     0.771   0.8956   0.1093
H1079     H     0.8751   0.9586   0.0497
H1080     H     0.7914   0.8749   0.0497
Ti1081     Ti     0.0666   0.9727   0.2304
Ti1082     Ti     0.0196   0.9727   0.1834
Er1083     Er     0.9991   0.9131   0.204
Er1084     Er     0.046   0.9131   0.2509
He1085     He     0.021   0.8907   0.1456
B1086     B     0.0812   0.8754   0.1688
Li1087     Li     0.1015   0.9351   0.1485
He1088     He     0.1044   0.8907   0.229
H1089     H     0.0414   0.9503   0.1249
H1090     H     0.1251   0.9503   0.2086
Ti1091     Ti     0.0666   0.7304   0.4727
Ti1092     Ti     0.0196   0.6834   0.4727
Er1093     Er     0.046   0.7509   0.4131
Er1094     Er     0.9991   0.704   0.4131
He1095     He     0.1044   0.729   0.3907
B1096     B     0.0812   0.6688   0.3754
Li1097     Li     0.1015   0.6485   0.4351
He1098     He     0.021   0.6456   0.3907
H1099     H     0.1251   0.7086   0.4503
H1100     H     0.0414   0.6249   0.4503
Ti1101     Ti     0.2304   0.9727   0.0666
Ti1102     Ti     0.1834   0.9727   0.0196
Er1103     Er     0.204   0.9131   0.9991
Er1104     Er     0.2509   0.9131   0.046
He1105     He     0.1456   0.8907   0.021
B1106     B     0.1688   0.8754   0.0812
Li1107     Li     0.1485   0.9351   0.1015
He1108     He     0.229   0.8907   0.1044
H1109     H     0.2086   0.9503   0.1251
H1110     H     0.1249   0.9503   0.0414
Ti1111     Ti     0.4727   0.5196   0.1834
Ti1112     Ti     0.4727   0.5666   0.2304
Er1113     Er     0.4131   0.4991   0.204
Er1114     Er     0.4131   0.546   0.2509
He1115     He     0.3907   0.6044   0.229
B1116     B     0.3754   0.5812   0.1688
Li1117     Li     0.4351   0.6015   0.1485
He1118     He     0.3907   0.521   0.1456
H1119     H     0.4503   0.6251   0.2086
H1120     H     0.4503   0.5414   0.1249
Ti1121     Ti     0.4727   0.7304   0.0666
Ti1122     Ti     0.4727   0.6834   0.0196
Er1123     Er     0.4131   0.7509   0.046
Er1124     Er     0.4131   0.704   0.9991
He1125     He     0.3907   0.6456   0.021
B1126     B     0.3754   0.6688   0.0812
Li1127     Li     0.4351   0.6485   0.1015
He1128     He     0.3907   0.729   0.1044
H1129     H     0.4503   0.6249   0.0414
H1130     H     0.4503   0.7086   0.1251
Ti1131     Ti     0.0196   0.2773   0.0666
Ti1132     Ti     0.0666   0.2773   0.0196
Er1133     Er     0.9991   0.3369   0.046
Er1134     Er     0.046   0.3369   0.9991
He1135     He     0.021   0.3593   0.1044
B1136     B     0.0812   0.3746   0.0812
Li1137     Li     0.1015   0.3149   0.1015
He1138     He     0.1044   0.3593   0.021
H1139     H     0.1251   0.2997   0.0414
H1140     H     0.0414   0.2997   0.1251
Ti1141     Ti     0.1834   0.5196   0.4727
Ti1142     Ti     0.2304   0.5666   0.4727
Er1143     Er     0.2509   0.546   0.4131
Er1144     Er     0.204   0.4991   0.4131
He1145     He     0.229   0.6044   0.3907
B1146     B     0.1688   0.5812   0.3754
Li1147     Li     0.1485   0.6015   0.4351
He1148     He     0.1456   0.521   0.3907
H1149     H     0.1249   0.5414   0.4503
H1150     H     0.2086   0.6251   0.4503
Ti1151     Ti     0.2304   0.2773   0.1834
Ti1152     Ti     0.1834   0.2773   0.2304
Er1153     Er     0.2509   0.3369   0.204
Er1154     Er     0.204   0.3369   0.2509
He1155     He     0.1456   0.3593   0.229
B1156     B     0.1688   0.3746   0.1688
Li1157     Li     0.1485   0.3149   0.1485
He1158     He     0.229   0.3593   0.1456
H1159     H     0.1249   0.2997   0.2086
H1160     H     0.2086   0.2997   0.1249
Ti1161     Ti     0.7773   0.5196   0.0666
Ti1162     Ti     0.7773   0.5666   0.0196
Er1163     Er     0.8369   0.546   0.9991
Er1164     Er     0.8369   0.4991   0.046
He1165     He     0.8593   0.6044   0.021
B1166     B     0.8746   0.5812   0.0812
Li1167     Li     0.8149   0.6015   0.1015
He1168     He     0.8593   0.521   0.1044
H1169     H     0.7997   0.5414   0.1251
H1170     H     0.7997   0.6251   0.0414
Ti1171     Ti     0.7773   0.7304   0.1834
Ti1172     Ti     0.7773   0.6834   0.2304
Er1173     Er     0.8369   0.704   0.2509
Er1174     Er     0.8369   0.7509   0.204
He1175     He     0.8593   0.6456   0.229
B1176     B     0.8746   0.6688   0.1688
Li1177     Li     0.8149   0.6485   0.1485
He1178     He     0.8593   0.729   0.1456
H1179     H     0.7997   0.7086   0.1249
H1180     H     0.7997   0.6249   0.2086
Ti1181     Ti     0.1834   0.7304   0.7773
Ti1182     Ti     0.2304   0.6834   0.7773
Er1183     Er     0.204   0.7509   0.8369
Er1184     Er     0.2509   0.704   0.8369
He1185     He     0.229   0.6456   0.8593
B1186     B     0.1688   0.6688   0.8746
Li1187     Li     0.1485   0.6485   0.8149
He1188     He     0.1456   0.729   0.8593
H1189     H     0.1249   0.7086   0.7997
H1190     H     0.2086   0.6249   0.7997
Be1191     Be     0.9343   0.6016   0.1016
Be1192     Be     0.9343   0.6484   0.1484
Be1193     Be     0.1484   0.6484   0.9343
Be1194     Be     0.1016   0.6016   0.9343
Be1195     Be     0.1484   0.8157   0.1016
Be1196     Be     0.1016   0.8157   0.1484
Be1197     Be     0.3157   0.6016   0.1484
Be1198     Be     0.3157   0.6484   0.1016
Be1199     Be     0.1016   0.6484   0.3157
Be1200     Be     0.1484   0.6016   0.3157
Be1201     Be     0.1016   0.4343   0.1016
Be1202     Be     0.1484   0.4343   0.1484
Ce1203     Ce     0.1414   0.6883   0.2808
Ce1204     Ce     0.1883   0.6414   0.2808
V1205     V     0.125   0.6719   0.2187
V1206     V     0.1719   0.625   0.2187
Ce1207     Ce     0.1086   0.5617   0.2808
Ce1208     Ce     0.0617   0.6086   0.2808
V1209     V     0.125   0.5781   0.2187
V1210     V     0.0781   0.625   0.2187
Ce1211     Ce     0.2808   0.5617   0.1086
Ce1212     Ce     0.2808   0.6086   0.0617
V1213     V     0.2187   0.625   0.0781
V1214     V     0.2187   0.5781   0.125
V1215     V     0.125   0.5313   0.1719
Ce1216     Ce     0.1086   0.4692   0.1883
Ce1217     Ce     0.0617   0.4692   0.1414
V1218     V     0.0781   0.5313   0.125
V1219     V     0.1719   0.5313   0.125
Ce1220     Ce     0.1414   0.4692   0.0617
Ce1221     Ce     0.1883   0.4692   0.1086
V1222     V     0.125   0.5313   0.0781
Ce1223     Ce     0.0617   0.7808   0.1086
Ce1224     Ce     0.1086   0.7808   0.0617
V1225     V     0.0781   0.7187   0.125
V1226     V     0.125   0.7187   0.0781
Ce1227     Ce     0.1414   0.7808   0.1883
Ce1228     Ce     0.1883   0.7808   0.1414
V1229     V     0.125   0.7187   0.1719
V1230     V     0.1719   0.7187   0.125
V1231     V     0.0313   0.5781   0.125
Ce1232     Ce     0.9692   0.5617   0.1414
Ce1233     Ce     0.9692   0.6086   0.1883
V1234     V     0.0313   0.625   0.1719
V1235     V     0.0313   0.6719   0.125
Ce1236     Ce     0.9692   0.6414   0.0617
Ce1237     Ce     0.9692   0.6883   0.1086
V1238     V     0.0313   0.625   0.0781
V1239     V     0.0781   0.625   0.0313
Ce1240     Ce     0.1086   0.6883   0.9692
Ce1241     Ce     0.0617   0.6414   0.9692
V1242     V     0.125   0.6719   0.0313
V1243     V     0.125   0.5781   0.0313
Ce1244     Ce     0.1883   0.6086   0.9692
Ce1245     Ce     0.1414   0.5617   0.9692
V1246     V     0.1719   0.625   0.0313
Ce1247     Ce     0.2808   0.6883   0.1414
Ce1248     Ce     0.2808   0.6414   0.1883
V1249     V     0.2187   0.625   0.1719
V1250     V     0.2187   0.6719   0.125
Ti1251     Ti     0.0666   0.5196   0.7773
Ti1252     Ti     0.0196   0.5666   0.7773
Er1253     Er     0.9991   0.546   0.8369
Er1254     Er     0.046   0.4991   0.8369
He1255     He     0.021   0.6044   0.8593
B1256     B     0.0812   0.5812   0.8746
Li1257     Li     0.1015   0.6015   0.8149
He1258     He     0.1044   0.521   0.8593
H1259     H     0.1251   0.5414   0.7997
H1260     H     0.0414   0.6251   0.7997
Ti1261     Ti     0.2696   0.5273   0.9334
Ti1262     Ti     0.3166   0.5273   0.9804
Er1263     Er     0.296   0.5869   0.0009
Er1264     Er     0.2491   0.5869   0.954
He1265     He     0.271   0.6093   0.8956
B1266     B     0.3312   0.6246   0.9188
Li1267     Li     0.3515   0.5649   0.8985
He1268     He     0.3544   0.6093   0.979
H1269     H     0.3751   0.5497   0.9586
H1270     H     0.2914   0.5497   0.8749
Ti1271     Ti     0.3166   0.2227   0.7696
Ti1272     Ti     0.2696   0.2227   0.8166
Er1273     Er     0.296   0.1631   0.7491
Er1274     Er     0.2491   0.1631   0.796
He1275     He     0.271   0.1407   0.8544
B1276     B     0.3312   0.1254   0.8312
Li1277     Li     0.3515   0.1851   0.8515
He1278     He     0.3544   0.1407   0.771
H1279     H     0.3751   0.2003   0.7914
H1280     H     0.2914   0.2003   0.8751
Ti1281     Ti     0.4334   0.7696   0.5273
Ti1282     Ti     0.4804   0.8166   0.5273
Er1283     Er     0.454   0.7491   0.5869
Er1284     Er     0.5009   0.796   0.5869
He1285     He     0.479   0.8544   0.6093
B1286     B     0.4188   0.8312   0.6246
Li1287     Li     0.3985   0.8515   0.5649
He1288     He     0.3956   0.771   0.6093
H1289     H     0.3749   0.7914   0.5497
H1290     H     0.4586   0.8751   0.5497
Ti1291     Ti     0.3166   0.7696   0.2227
Ti1292     Ti     0.2696   0.8166   0.2227
Er1293     Er     0.296   0.7491   0.1631
Er1294     Er     0.2491   0.796   0.1631
He1295     He     0.271   0.8544   0.1407
B1296     B     0.3312   0.8312   0.1254
Li1297     Li     0.3515   0.8515   0.1851
He1298     He     0.3544   0.771   0.1407
H1299     H     0.2914   0.8751   0.2003
H1300     H     0.3751   0.7914   0.2003
Ti1301     Ti     0.4804   0.2227   0.9334
Ti1302     Ti     0.4334   0.2227   0.9804
Er1303     Er     0.454   0.1631   0.0009
Er1304     Er     0.5009   0.1631   0.954
He1305     He     0.479   0.1407   0.8956
B1306     B     0.4188   0.1254   0.9188
Li1307     Li     0.3985   0.1851   0.8985
He1308     He     0.3956   0.1407   0.979
H1309     H     0.3749   0.2003   0.9586
H1310     H     0.4586   0.2003   0.8749
Ti1311     Ti     0.4804   0.9334   0.2227
Ti1312     Ti     0.4334   0.9804   0.2227
Er1313     Er     0.454   0.0009   0.1631
Er1314     Er     0.5009   0.954   0.1631
He1315     He     0.479   0.8956   0.1407
B1316     B     0.4188   0.9188   0.1254
Li1317     Li     0.3985   0.8985   0.1851
He1318     He     0.3956   0.979   0.1407
H1319     H     0.3749   0.9586   0.2003
H1320     H     0.4586   0.8749   0.2003
Ti1321     Ti     0.4804   0.5273   0.8166
Ti1322     Ti     0.4334   0.5273   0.7696
Er1323     Er     0.454   0.5869   0.7491
Er1324     Er     0.5009   0.5869   0.796
He1325     He     0.479   0.6093   0.8544
B1326     B     0.4188   0.6246   0.8312
Li1327     Li     0.3985   0.5649   0.8515
He1328     He     0.3956   0.6093   0.771
H1329     H     0.4586   0.5497   0.8751
H1330     H     0.3749   0.5497   0.7914
Ti1331     Ti     0.7227   0.8166   0.7696
Ti1332     Ti     0.7227   0.7696   0.8166
Er1333     Er     0.6631   0.796   0.7491
Er1334     Er     0.6631   0.7491   0.796
He1335     He     0.6407   0.8544   0.771
B1336     B     0.6254   0.8312   0.8312
Li1337     Li     0.6851   0.8515   0.8515
He1338     He     0.6407   0.771   0.8544
H1339     H     0.7003   0.8751   0.7914
H1340     H     0.7003   0.7914   0.8751
Ti1341     Ti     0.7227   0.9334   0.9804
Ti1342     Ti     0.7227   0.9804   0.9334
Er1343     Er     0.6631   0.954   0.0009
Er1344     Er     0.6631   0.0009   0.954
He1345     He     0.6407   0.8956   0.979
B1346     B     0.6254   0.9188   0.9188
Li1347     Li     0.6851   0.8985   0.8985
He1348     He     0.6407   0.979   0.8956
H1349     H     0.7003   0.9586   0.8749
H1350     H     0.7003   0.8749   0.9586
Ti1351     Ti     0.2696   0.9334   0.5273
Ti1352     Ti     0.3166   0.9804   0.5273
Er1353     Er     0.296   0.0009   0.5869
Er1354     Er     0.2491   0.954   0.5869
He1355     He     0.271   0.8956   0.6093
B1356     B     0.3312   0.9188   0.6246
Li1357     Li     0.3515   0.8985   0.5649
He1358     He     0.3544   0.979   0.6093
H1359     H     0.3751   0.9586   0.5497
H1360     H     0.2914   0.8749   0.5497
Ti1361     Ti     0.0273   0.9804   0.8166
Ti1362     Ti     0.0273   0.9334   0.7696
Er1363     Er     0.0869   0.0009   0.796
Er1364     Er     0.0869   0.954   0.7491
He1365     He     0.1093   0.8956   0.771
B1366     B     0.1246   0.9188   0.8312
Li1367     Li     0.0649   0.8985   0.8515
He1368     He     0.1093   0.979   0.8544
H1369     H     0.0497   0.9586   0.8751
H1370     H     0.0497   0.8749   0.7914
Be1371     Be     0.5657   0.8516   0.8516
Be1372     Be     0.5657   0.8984   0.8984
Be1373     Be     0.1843   0.8984   0.8516
Be1374     Be     0.1843   0.8516   0.8984
Be1375     Be     0.3516   0.0657   0.8516
Be1376     Be     0.3984   0.0657   0.8984
Be1377     Be     0.3984   0.8516   0.6843
Be1378     Be     0.3516   0.8984   0.6843
Be1379     Be     0.3984   0.8984   0.0657
Be1380     Be     0.3516   0.8516   0.0657
Be1381     Be     0.3516   0.6843   0.8984
Be1382     Be     0.3984   0.6843   0.8516
V1383     V     0.4687   0.9219   0.875
Ce1384     Ce     0.5308   0.8914   0.8117
Ce1385     Ce     0.5308   0.9383   0.8586
V1386     V     0.4687   0.875   0.8281
V1387     V     0.4687   0.875   0.9219
Ce1388     Ce     0.5308   0.8117   0.8914
Ce1389     Ce     0.5308   0.8586   0.9383
V1390     V     0.4687   0.8281   0.875
Ce1391     Ce     0.4383   0.7192   0.8914
Ce1392     Ce     0.3914   0.7192   0.9383
V1393     V     0.375   0.7813   0.9219
V1394     V     0.4219   0.7813   0.875
V1395     V     0.375   0.8281   0.9687
Ce1396     Ce     0.4383   0.8586   0.0308
Ce1397     Ce     0.3914   0.8117   0.0308
V1398     V     0.4219   0.875   0.9687
V1399     V     0.375   0.9687   0.9219
Ce1400     Ce     0.3117   0.0308   0.8914
Ce1401     Ce     0.3586   0.0308   0.9383
V1402     V     0.3281   0.9687   0.875
V1403     V     0.375   0.9219   0.7813
Ce1404     Ce     0.4383   0.8914   0.7192
Ce1405     Ce     0.3914   0.9383   0.7192
V1406     V     0.4219   0.875   0.7813
V1407     V     0.375   0.9687   0.8281
Ce1408     Ce     0.3914   0.0308   0.8117
Ce1409     Ce     0.4383   0.0308   0.8586
V1410     V     0.4219   0.9687   0.875
Ce1411     Ce     0.3117   0.7192   0.8586
Ce1412     Ce     0.3586   0.7192   0.8117
V1413     V     0.3281   0.7813   0.875
V1414     V     0.375   0.7813   0.8281
V1415     V     0.3281   0.875   0.9687
Ce1416     Ce     0.3117   0.8914   0.0308
Ce1417     Ce     0.3586   0.9383   0.0308
V1418     V     0.375   0.9219   0.9687
V1419     V     0.2813   0.875   0.9219
Ce1420     Ce     0.2192   0.8914   0.9383
Ce1421     Ce     0.2192   0.9383   0.8914
V1422     V     0.2813   0.9219   0.875
V1423     V     0.2813   0.875   0.8281
Ce1424     Ce     0.2192   0.8117   0.8586
Ce1425     Ce     0.2192   0.8586   0.8117
V1426     V     0.2813   0.8281   0.875
Ce1427     Ce     0.3117   0.8586   0.7192
Ce1428     Ce     0.3586   0.8117   0.7192
V1429     V     0.375   0.8281   0.7813
V1430     V     0.3281   0.875   0.7813
Ti1431     Ti     0.0273   0.7696   0.9334
Ti1432     Ti     0.0273   0.8166   0.9804
Er1433     Er     0.0869   0.796   0.0009
Er1434     Er     0.0869   0.7491   0.954
He1435     He     0.1093   0.8544   0.979
B1436     B     0.1246   0.8312   0.9188
Li1437     Li     0.0649   0.8515   0.8985
He1438     He     0.1093   0.771   0.8956
H1439     H     0.0497   0.8751   0.9586
H1440     H     0.0497   0.7914   0.8749
Ti1441     Ti     0.0666   0.4727   0.7304
Ti1442     Ti     0.0196   0.4727   0.6834
Er1443     Er     0.9991   0.4131   0.704
Er1444     Er     0.046   0.4131   0.7509
He1445     He     0.021   0.3907   0.6456
B1446     B     0.0812   0.3754   0.6688
Li1447     Li     0.1015   0.4351   0.6485
He1448     He     0.1044   0.3907   0.729
H1449     H     0.0414   0.4503   0.6249
H1450     H     0.1251   0.4503   0.7086
Ti1451     Ti     0.0666   0.2304   0.9727
Ti1452     Ti     0.0196   0.1834   0.9727
Er1453     Er     0.9991   0.204   0.9131
Er1454     Er     0.046   0.2509   0.9131
He1455     He     0.021   0.1456   0.8907
B1456     B     0.0812   0.1688   0.8754
Li1457     Li     0.1015   0.1485   0.9351
He1458     He     0.1044   0.229   0.8907
H1459     H     0.0414   0.1249   0.9503
H1460     H     0.1251   0.2086   0.9503
Ti1461     Ti     0.0666   0.0196   0.2773
Ti1462     Ti     0.0196   0.0666   0.2773
Er1463     Er     0.046   0.9991   0.3369
Er1464     Er     0.9991   0.046   0.3369
He1465     He     0.1044   0.021   0.3593
B1466     B     0.0812   0.0812   0.3746
Li1467     Li     0.1015   0.1015   0.3149
He1468     He     0.021   0.1044   0.3593
H1469     H     0.0414   0.1251   0.2997
H1470     H     0.1251   0.0414   0.2997
Ti1471     Ti     0.1834   0.2304   0.2773
Ti1472     Ti     0.2304   0.1834   0.2773
Er1473     Er     0.2509   0.204   0.3369
Er1474     Er     0.204   0.2509   0.3369
He1475     He     0.229   0.1456   0.3593
B1476     B     0.1688   0.1688   0.3746
Li1477     Li     0.1485   0.1485   0.3149
He1478     He     0.1456   0.229   0.3593
H1479     H     0.2086   0.1249   0.2997
H1480     H     0.1249   0.2086   0.2997
Ti1481     Ti     0.1834   0.4727   0.5196
Ti1482     Ti     0.2304   0.4727   0.5666
Er1483     Er     0.2509   0.4131   0.546
Er1484     Er     0.204   0.4131   0.4991
He1485     He     0.229   0.3907   0.6044
B1486     B     0.1688   0.3754   0.5812
Li1487     Li     0.1485   0.4351   0.6015
He1488     He     0.1456   0.3907   0.521
H1489     H     0.2086   0.4503   0.6251
H1490     H     0.1249   0.4503   0.5414
Ti1491     Ti     0.4727   0.1834   0.5196
Ti1492     Ti     0.4727   0.2304   0.5666
Er1493     Er     0.4131   0.204   0.4991
Er1494     Er     0.4131   0.2509   0.546
He1495     He     0.3907   0.1456   0.521
B1496     B     0.3754   0.1688   0.5812
Li1497     Li     0.4351   0.1485   0.6015
He1498     He     0.3907   0.229   0.6044
H1499     H     0.4503   0.1249   0.5414
H1500     H     0.4503   0.2086   0.6251
Ti1501     Ti     0.4727   0.0666   0.7304
Ti1502     Ti     0.4727   0.0196   0.6834
Er1503     Er     0.4131   0.9991   0.704
Er1504     Er     0.4131   0.046   0.7509
He1505     He     0.3907   0.1044   0.729
B1506     B     0.3754   0.0812   0.6688
Li1507     Li     0.4351   0.1015   0.6485
He1508     He     0.3907   0.021   0.6456
H1509     H     0.4503   0.1251   0.7086
H1510     H     0.4503   0.0414   0.6249
Ti1511     Ti     0.7773   0.1834   0.7304
Ti1512     Ti     0.7773   0.2304   0.6834
Er1513     Er     0.8369   0.204   0.7509
Er1514     Er     0.8369   0.2509   0.704
He1515     He     0.8593   0.1456   0.729
B1516     B     0.8746   0.1688   0.6688
Li1517     Li     0.8149   0.1485   0.6485
He1518     He     0.8593   0.229   0.6456
H1519     H     0.7997   0.1249   0.7086
H1520     H     0.7997   0.2086   0.6249
Ti1521     Ti     0.1834   0.7773   0.7304
Ti1522     Ti     0.2304   0.7773   0.6834
Er1523     Er     0.204   0.8369   0.7509
Er1524     Er     0.2509   0.8369   0.704
He1525     He     0.229   0.8593   0.6456
B1526     B     0.1688   0.8746   0.6688
Li1527     Li     0.1485   0.8149   0.6485
He1528     He     0.1456   0.8593   0.729
H1529     H     0.1249   0.7997   0.7086
H1530     H     0.2086   0.7997   0.6249
Ti1531     Ti     0.7773   0.0666   0.5196
Ti1532     Ti     0.7773   0.0196   0.5666
Er1533     Er     0.8369   0.9991   0.546
Er1534     Er     0.8369   0.046   0.4991
He1535     He     0.8593   0.1044   0.521
B1536     B     0.8746   0.0812   0.5812
Li1537     Li     0.8149   0.1015   0.6015
He1538     He     0.8593   0.021   0.6044
H1539     H     0.7997   0.1251   0.5414
H1540     H     0.7997   0.0414   0.6251
Ti1541     Ti     0.0666   0.7773   0.5196
Ti1542     Ti     0.0196   0.7773   0.5666
Er1543     Er     0.9991   0.8369   0.546
Er1544     Er     0.046   0.8369   0.4991
He1545     He     0.021   0.8593   0.6044
B1546     B     0.0812   0.8746   0.5812
Li1547     Li     0.1015   0.8149   0.6015
He1548     He     0.1044   0.8593   0.521
H1549     H     0.1251   0.7997   0.5414
H1550     H     0.0414   0.7997   0.6251
Be1551     Be     0.9343   0.1484   0.6484
Be1552     Be     0.9343   0.1016   0.6016
Be1553     Be     0.1484   0.9343   0.6484
Be1554     Be     0.1016   0.9343   0.6016
Be1555     Be     0.1016   0.3157   0.6484
Be1556     Be     0.1484   0.3157   0.6016
Be1557     Be     0.3157   0.1484   0.6016
Be1558     Be     0.3157   0.1016   0.6484
Be1559     Be     0.1016   0.1484   0.8157
Be1560     Be     0.1484   0.1016   0.8157
Be1561     Be     0.1016   0.1016   0.4343
Be1562     Be     0.1484   0.1484   0.4343
Ce1563     Ce     0.1883   0.1414   0.7808
Ce1564     Ce     0.1414   0.1883   0.7808
V1565     V     0.1719   0.125   0.7187
V1566     V     0.125   0.1719   0.7187
Ce1567     Ce     0.0617   0.2808   0.6086
Ce1568     Ce     0.1086   0.2808   0.5617
V1569     V     0.0781   0.2187   0.625
V1570     V     0.125   0.2187   0.5781
Ce1571     Ce     0.1414   0.2808   0.6883
Ce1572     Ce     0.1883   0.2808   0.6414
V1573     V     0.1719   0.2187   0.625
V1574     V     0.125   0.2187   0.6719
Ce1575     Ce     0.2808   0.1414   0.6883
Ce1576     Ce     0.2808   0.1883   0.6414
V1577     V     0.2187   0.125   0.6719
V1578     V     0.2187   0.1719   0.625
V1579     V     0.0313   0.125   0.5781
Ce1580     Ce     0.9692   0.1414   0.5617
Ce1581     Ce     0.9692   0.1883   0.6086
V1582     V     0.0313   0.1719   0.625
Ce1583     Ce     0.2808   0.1086   0.5617
Ce1584     Ce     0.2808   0.0617   0.6086
V1585     V     0.2187   0.125   0.5781
V1586     V     0.2187   0.0781   0.625
V1587     V     0.125   0.0781   0.7187
Ce1588     Ce     0.1086   0.0617   0.7808
Ce1589     Ce     0.0617   0.1086   0.7808
V1590     V     0.0781   0.125   0.7187
V1591     V     0.125   0.0313   0.5781
Ce1592     Ce     0.1414   0.9692   0.5617
Ce1593     Ce     0.1883   0.9692   0.6086
V1594     V     0.1719   0.0313   0.625
V1595     V     0.0313   0.0781   0.625
Ce1596     Ce     0.9692   0.1086   0.6883
Ce1597     Ce     0.9692   0.0617   0.6414
V1598     V     0.0313   0.125   0.6719
V1599     V     0.125   0.0313   0.6719
Ce1600     Ce     0.0617   0.9692   0.6414
Ce1601     Ce     0.1086   0.9692   0.6883
V1602     V     0.0781   0.0313   0.625
V1603     V     0.1719   0.125   0.5313
Ce1604     Ce     0.1883   0.1086   0.4692
Ce1605     Ce     0.1414   0.0617   0.4692
V1606     V     0.125   0.0781   0.5313
V1607     V     0.0781   0.125   0.5313
Ce1608     Ce     0.0617   0.1414   0.4692
Ce1609     Ce     0.1086   0.1883   0.4692
V1610     V     0.125   0.1719   0.5313
Ti1611     Ti     0.2304   0.0666   0.9727
Ti1612     Ti     0.1834   0.0196   0.9727
Er1613     Er     0.204   0.9991   0.9131
Er1614     Er     0.2509   0.046   0.9131
He1615     He     0.229   0.1044   0.8907
B1616     B     0.1688   0.0812   0.8754
Li1617     Li     0.1485   0.1015   0.9351
He1618     He     0.1456   0.021   0.8907
H1619     H     0.1249   0.0414   0.9503
H1620     H     0.2086   0.1251   0.9503
S1621     S     0.6839   0.4722   0.2308
S1622     S     0.7222   0.4339   0.2692
S1623     S     0.7692   0.4339   0.2222
S1624     S     0.7308   0.4722   0.1839
S1625     S     0.8161   0.4808   0.2222
S1626     S     0.7778   0.5192   0.1839
S1627     S     0.7778   0.5661   0.2308
S1628     S     0.8161   0.5278   0.2692
S1629     S     0.6839   0.5192   0.2778
S1630     S     0.7222   0.4808   0.3161
S1631     S     0.7308   0.5661   0.2778
S1632     S     0.7692   0.5278   0.3161
loop_
_geom_bond_atom_site_label_1
_geom_bond_atom_site_label_2
_geom_bond_distance
_geom_bond_site_symmetry_2
_ccdc_geom_bond_type
S1     S2    9.998   1_554     S
S1     S4    10.015   .     S
S1     S12    10.019   1_554     S
S1     H410    10.026   .     S
S2     S1    9.998   1_556     S
S2     S11    10.015   .     S
S2     S3    10.019   1_556     S
S2     H1309    10.026   .     S
S3     S4    9.998   .     S
S3     S8    10.015   .     S
S3     S2    10.019   1_554     S
S3     H719    10.026   .     S
S4     S7    10.019   .     S
S4     H380    10.026   .     S
S5     S6    9.998   1_554     S
S5     S7    10.015   .     S
S5     S10    10.019   1_554     S
S5     H1139    10.026   .     S
S6     S5    9.998   1_556     S
S6     S9    10.015   .     S
S6     S8    10.019   1_556     S
S6     H759    10.026   .     S
S7     S8    9.998   .     S
S7     H1160    10.026   .     S
S8     S6    10.019   1_554     S
S8     H639    10.026   .     S
S9     S10    9.998   .     S
S9     S11    10.019   .     S
S9     H770    10.026   .     S
S10     S12    10.015   .     S
S10     S5    10.019   1_556     S
S10     H1460    10.026   .     S
S11     S12    9.998   .     S
S11     H1280    10.026   .     S
S12     S1    10.019   1_556     S
S12     H1620    10.026   .     S
S13     S14    9.998   1_455     S
S13     S22    10.015   .     S
S13     S17    10.019   1_455     S
S13     H1550    10.026   .     S
S14     S13    9.998   1_655     S
S14     S18    10.015   .     S
S14     S21    10.019   1_655     S
S14     H1000    10.026   .     S
S15     S16    9.998   .     S
S15     S17    10.015   .     S
S15     S19    10.019   1_655     S
S15     H220    10.026   .     S
S16     S20    10.015   .     S
S16     S18    10.019   .     S
S16     H810    10.026   .     S
S17     S18    9.998   .     S
S17     S13    10.019   1_655     S
S17     H229    10.026   .     S
S18     H989    10.026   .     S
S19     S20    9.998   1_455     S
S19     S24    10.015   .     S
S19     S15    10.019   1_455     S
S19     H1260    10.026   .     S
S20     S19    9.998   1_655     S
S20     S23    10.019   1_655     S
S20     H799    10.026   .     S
S21     S22    9.998   .     S
S21     S23    10.015   .     S
S21     S14    10.019   1_455     S
S21     H1370    10.026   .     S
S22     S24    10.019   .     S
S22     H1529    10.026   .     S
S23     S24    9.998   .     S
S23     S20    10.019   1_455     S
S23     H1440    10.026   .     S
S24     H1189    10.026   .     S
S25     S26    9.998   1_545     S
S25     S27    10.015   .     S
S25     S36    10.019   1_545     S
S25     H1470    10.026   .     S
S26     S25    9.998   1_565     S
S26     S35    10.015   .     S
S26     S28    10.019   1_565     S
S26     H969    10.026   .     S
S27     S28    9.998   .     S
S27     S30    10.019   .     S
S27     H1479    10.026   .     S
S28     S29    10.015   .     S
S28     S26    10.019   1_545     S
S28     H610    10.026   .     S
S29     S30    9.998   .     S
S29     S32    10.019   1_545     S
S29     H630    10.026   .     S
S30     S31    10.015   .     S
S30     H379    10.026   .     S
S31     S32    9.998   1_545     S
S31     S34    10.019   1_545     S
S31     H409    10.026   .     S
S32     S31    9.998   1_565     S
S32     S33    10.015   .     S
S32     S29    10.019   1_565     S
S32     H1319    10.026   .     S
S33     S34    9.998   .     S
S33     S35    10.019   .     S
S33     H1299    10.026   .     S
S34     S36    10.015   .     S
S34     S31    10.019   1_565     S
S34     H1109    10.026   .     S
S35     S36    9.998   .     S
S35     H950    10.026   .     S
S36     S25    10.019   1_565     S
S36     H1090    10.026   .     S
S37     S38    9.998   1_455     S
S37     S39    10.015   .     S
S37     S46    10.019   1_455     S
S37     H1469    10.026   .     S
S38     S37    9.998   1_655     S
S38     S45    10.015   .     S
S38     S40    10.019   1_655     S
S38     H979    10.026   .     S
S39     S40    9.998   .     S
S39     S41    10.019   .     S
S39     H1480    10.026   .     S
S40     S42    10.015   .     S
S40     S38    10.019   1_455     S
S40     H620    10.026   .     S
S41     S42    9.998   .     S
S41     S43    10.015   .     S
S41     H1159    10.026   .     S
S42     S44    10.019   1_455     S
S42     H649    10.026   .     S
S43     S44    9.998   1_455     S
S43     S48    10.019   1_455     S
S43     H1140    10.026   .     S
S44     S43    9.998   1_655     S
S44     S47    10.015   .     S
S44     S42    10.019   1_655     S
S44     H789    10.026   .     S
S45     S46    9.998   .     S
S45     S47    10.019   .     S
S45     H959    10.026   .     S
S46     S48    10.015   .     S
S46     S37    10.019   1_655     S
S46     H389    10.026   .     S
S47     S48    9.998   .     S
S47     H780    10.026   .     S
S48     S43    10.019   1_655     S
S48     H370    10.026   .     S
S49     S50    9.998   .     S
S49     S52    10.015   .     S
S49     S55    10.019   .     S
S49     H750    10.026   .     S
S50     S56    10.015   .     S
S50     S51    10.019   .     S
S50     H1520    10.026   .     S
S51     S52    9.998   .     S
S51     S53    10.015   .     S
S51     H190    10.026   .     S
S52     S54    10.019   .     S
S52     H830    10.026   .     S
S53     S54    9.998   .     S
S53     S59    10.019   .     S
S53     H259    10.026   .     S
S54     S60    10.015   .     S
S54     H579    10.026   .     S
S55     S56    9.998   .     S
S55     S57    10.015   .     S
S55     H980    10.026   .     S
S56     S58    10.019   .     S
S56     H1539    10.026   .     S
S57     S58    9.998   .     S
S57     S60    10.019   .     S
S57     H960    10.026   .     S
S58     S59    10.015   .     S
S58     H439    10.026   .     S
S59     S60    9.998   .     S
S59     H420    10.026   .     S
S60     H589    10.026   .     S
S61     S62    9.998   .     S
S61     S63    10.015   .     S
S61     S66    10.019   .     S
S61     H360    10.026   .     S
S62     S65    10.015   .     S
S62     S64    10.019   .     S
S62     H920    10.026   .     S
S63     S64    9.998   .     S
S63     S71    10.019   .     S
S63     H239    10.026   .     S
S64     S72    10.015   .     S
S64     H569    10.026   .     S
S65     S66    9.998   .     S
S65     S67    10.019   .     S
S65     H910    10.026   .     S
S66     S68    10.015   .     S
S66     H450    10.026   .     S
S67     S68    9.998   .     S
S67     S69    10.015   .     S
S67     H1320    10.026   .     S
S68     S70    10.019   .     S
S68     H469    10.026   .     S
S69     S70    9.998   .     S
S69     S72    10.019   .     S
S69     H1300    10.026   .     S
S70     S71    10.015   .     S
S70     H1130    10.026   .     S
S71     S72    9.998   .     S
S71     H1119    10.026   .     S
S72     H549    10.026   .     S
S73     S74    9.998   1_556     S
S73     S76    10.015   .     S
S73     S81    10.019   1_456     S
S73     H1439    10.026   .     S
S74     S73    9.998   1_554     S
S74     S82    10.015   .     S
S74     S75    10.019   1_564     S
S74     H1110    10.026   .     S
S75     S76    9.998   1_545     S
S75     S78    10.015   .     S
S75     S74    10.019   1_546     S
S75     H1619    10.026   .     S
S76     S75    9.998   1_565     S
S76     S77    10.019   1_465     S
S76     H1369    10.026   .     S
S77     S78    9.998   1_655     S
S77     S79    10.015   .     S
S77     S76    10.019   1_645     S
S77     H899    10.026   .     S
S78     S77    9.998   1_455     S
S78     S80    10.019   1_456     S
S78     H1459    10.026   .     S
S79     S80    9.998   1_556     S
S79     S83    10.019   1_546     S
S79     H819    10.026   .     S
S80     S79    9.998   1_554     S
S80     S84    10.015   .     S
S80     S78    10.019   1_654     S
S80     H369    10.026   .     S
S81     S82    9.998   1_655     S
S81     S83    10.015   .     S
S81     S73    10.019   1_654     S
S81     H1009    10.026   .     S
S82     S81    9.998   1_455     S
S82     S84    10.019   1_465     S
S82     H1089    10.026   .     S
S83     S84    9.998   1_565     S
S83     S79    10.019   1_564     S
S83     H1079    10.026   .     S
S84     S83    9.998   1_545     S
S84     S82    10.019   1_645     S
S84     H390    10.026   .     S
S85     S86    9.998   1_545     S
S85     S88    10.015   .     S
S85     S93    10.019   1_545     S
S85     H540    10.026   .     S
S86     S85    9.998   1_565     S
S86     S94    10.015   .     S
S86     S87    10.019   1_565     S
S86     H1349    10.026   .     S
S87     S88    9.998   .     S
S87     S89    10.015   .     S
S87     S86    10.019   1_545     S
S87     H820    10.026   .     S
S88     S90    10.019   .     S
S88     H459    10.026   .     S
S89     S90    9.998   .     S
S89     S92    10.019   1_545     S
S89     H900    10.026   .     S
S90     S91    10.015   .     S
S90     H1519    10.026   .     S
S91     S92    9.998   1_545     S
S91     S95    10.019   1_545     S
S91     H1540    10.026   .     S
S92     S91    9.998   1_565     S
S92     S96    10.015   .     S
S92     S89    10.019   1_565     S
S92     H999    10.026   .     S
S93     S94    9.998   .     S
S93     S95    10.015   .     S
S93     S85    10.019   1_565     S
S93     H269    10.026   .     S
S94     S96    10.019   .     S
S94     H1339    10.026   .     S
S95     S96    9.998   .     S
S95     S91    10.019   1_565     S
S95     H250    10.026   .     S
S96     H990    10.026   .     S
S97     S98    9.998   .     S
S97     S100    10.015   .     S
S97     S105    10.019   .     S
S97     H1500    10.026   .     S
S98     S106    10.015   .     S
S98     S99    10.019   .     S
S98     H600    10.026   .     S
S99     S100    9.998   .     S
S99     S101    10.015   .     S
S99     H1279    10.026   .     S
S100     S102    10.019   .     S
S100     H1509    10.026   .     S
S101     S102    9.998   .     S
S101     S104    10.019   .     S
S101     H1310    10.026   .     S
S102     S103    10.015   .     S
S102     H539    10.026   .     S
S103     S104    9.998   .     S
S103     S107    10.019   .     S
S103     H460    10.026   .     S
S104     S108    10.015   .     S
S104     H730    10.026   .     S
S105     S106    9.998   .     S
S105     S107    10.015   .     S
S105     H260    10.026   .     S
S106     S108    10.019   .     S
S106     H560    10.026   .     S
S107     S108    9.998   .     S
S107     H189    10.026   .     S
S108     H739    10.026   .     S
S109     S110    9.998   1_455     S
S109     S112    10.015   .     S
S109     S117    10.019   1_455     S
S109     H1100    10.026   .     S
S110     S109    9.998   1_655     S
S110     S118    10.015   .     S
S110     S111    10.019   1_655     S
S110     H939    10.026   .     S
S111     S112    9.998   .     S
S111     S113    10.015   .     S
S111     S110    10.019   1_455     S
S111     H650    10.026   .     S
S112     S114    10.019   .     S
S112     H1149    10.026   .     S
S113     S114    9.998   .     S
S113     S116    10.019   1_455     S
S113     H619    10.026   .     S
S114     S115    10.015   .     S
S114     H1490    10.026   .     S
S115     S116    9.998   1_455     S
S115     S120    10.019   1_455     S
S115     H1449    10.026   .     S
S116     S115    9.998   1_655     S
S116     S119    10.015   .     S
S116     S113    10.019   1_655     S
S116     H749    10.026   .     S
S117     S118    9.998   .     S
S117     S120    10.015   .     S
S117     S109    10.019   1_655     S
S117     H230    10.026   .     S
S118     S119    10.019   .     S
S118     H930    10.026   .     S
S119     S120    9.998   .     S
S119     H829    10.026   .     S
S120     S115    10.019   1_655     S
S120     H219    10.026   .     S
S121     S122    9.998   1_554     S
S121     S124    10.015   .     S
S121     S129    10.019   1_554     S
S121     H470    10.026   .     S
S122     S121    9.998   1_556     S
S122     S130    10.015   .     S
S122     S123    10.019   1_556     S
S122     H1350    10.026   .     S
S123     S124    9.998   .     S
S123     S125    10.015   .     S
S123     S122    10.019   1_554     S
S123     H1080    10.026   .     S
S124     S126    10.019   .     S
S124     H449    10.026   .     S
S125     S126    9.998   .     S
S125     S128    10.019   1_554     S
S125     H1010    10.026   .     S
S126     S127    10.015   .     S
S126     H1179    10.026   .     S
S127     S128    9.998   1_554     S
S127     S132    10.019   1_554     S
S127     H1170    10.026   .     S
S128     S127    9.998   1_556     S
S128     S131    10.015   .     S
S128     S125    10.019   1_556     S
S128     H800    10.026   .     S
S129     S130    9.998   .     S
S129     S132    10.015   .     S
S129     S121    10.019   1_556     S
S129     H210    10.026   .     S
S130     S131    10.019   .     S
S130     H1340    10.026   .     S
S131     S132    9.998   .     S
S131     H809    10.026   .     S
S132     S127    10.019   1_556     S
S132     H289    10.026   .     S
S133     S134    9.998   .     S
S133     S140    10.015   .     S
S133     S135    10.019   .     S
S133     H1150    10.026   .     S
S134     S136    10.015   .     S
S134     S139    10.019   .     S
S134     H550    10.026   .     S
S135     S136    9.998   .     S
S135     S137    10.015   .     S
S135     H200    10.026   .     S
S136     S138    10.019   .     S
S136     H570    10.026   .     S
S137     S138    9.998   .     S
S137     S141    10.019   .     S
S137     H279    10.026   .     S
S138     S142    10.015   .     S
S138     H1289    10.026   .     S
S139     S140    9.998   .     S
S139     S143    10.015   .     S
S139     H949    10.026   .     S
S140     S144    10.019   .     S
S140     H1099    10.026   .     S
S141     S142    9.998   .     S
S141     S144    10.015   .     S
S141     H1530    10.026   .     S
S142     S143    10.019   .     S
S142     H1360    10.026   .     S
S143     S144    9.998   .     S
S143     H970    10.026   .     S
S144     H1549    10.026   .     S
S145     S146    9.998   .     S
S145     S147    10.015   .     S
S145     S150    10.019   .     S
S145     H280    10.026   .     S
S146     S149    10.015   .     S
S146     S148    10.019   .     S
S146     H1330    10.026   .     S
S147     S148    9.998   .     S
S147     S155    10.019   .     S
S147     H199    10.026   .     S
S148     S156    10.015   .     S
S148     H559    10.026   .     S
S149     S150    9.998   .     S
S149     S151    10.019   .     S
S149     H1270    10.026   .     S
S150     S152    10.015   .     S
S150     H1190    10.026   .     S
S151     S152    9.998   .     S
S151     S153    10.015   .     S
S151     H760    10.026   .     S
S152     S154    10.019   .     S
S152     H1259    10.026   .     S
S153     S154    9.998   .     S
S153     S156    10.019   .     S
S153     H769    10.026   .     S
S154     S155    10.015   .     S
S154     H1450    10.026   .     S
S155     S156    9.998   .     S
S155     H1489    10.026   .     S
S156     H599    10.026   .     S
S157     S158    9.998   .     S
S157     S161    10.015   .     S
S157     S159    10.019   1_545     S
S157     H609    10.026   .     S
S158     S160    10.015   .     S
S158     S162    10.019   .     S
S158     H1499    10.026   .     S
S159     S160    9.998   1_565     S
S159     S168    10.015   .     S
S159     S157    10.019   1_565     S
S159     H1359    10.026   .     S
S160     S159    9.998   1_545     S
S160     S167    10.019   1_545     S
S160     H1510    10.026   .     S
S161     S162    9.998   .     S
S161     S164    10.019   1_545     S
S161     H629    10.026   .     S
S162     S163    10.015   .     S
S162     H419    10.026   .     S
S163     S164    9.998   1_545     S
S163     S165    10.019   1_545     S
S163     H440    10.026   .     S
S164     S163    9.998   1_565     S
S164     S166    10.015   .     S
S164     S161    10.019   1_565     S
S164     H909    10.026   .     S
S165     S166    9.998   .     S
S165     S167    10.015   .     S
S165     S163    10.019   1_565     S
S165     H249    10.026   .     S
S166     S168    10.019   .     S
S166     H919    10.026   .     S
S167     S168    9.998   .     S
S167     S160    10.019   1_565     S
S167     H270    10.026   .     S
S168     H1290    10.026   .     S
S169     S170    9.998   1_554     S
S169     S172    10.015   .     S
S169     S177    10.019   1_554     S
S169     H1129    10.026   .     S
S170     S169    9.998   1_556     S
S170     S178    10.015   .     S
S170     S171    10.019   1_556     S
S170     H1269    10.026   .     S
S171     S172    9.998   .     S
S171     S173    10.015   .     S
S171     S170    10.019   1_554     S
S171     H640    10.026   .     S
S172     S174    10.019   .     S
S172     H1120    10.026   .     S
S173     S174    9.998   .     S
S173     S176    10.019   1_554     S
S173     H720    10.026   .     S
S174     S175    10.015   .     S
S174     H429    10.026   .     S
S175     S176    9.998   1_554     S
S175     S179    10.019   1_554     S
S175     H400    10.026   .     S
S176     S175    9.998   1_556     S
S176     S180    10.015   .     S
S176     S173    10.019   1_556     S
S176     H729    10.026   .     S
S177     S178    9.998   .     S
S177     S179    10.015   .     S
S177     S169    10.019   1_556     S
S177     H209    10.026   .     S
S178     S180    10.019   .     S
S178     H1329    10.026   .     S
S179     S180    9.998   .     S
S179     S175    10.019   1_556     S
S179     H290    10.026   .     S
S180     H740    10.026   .     S
Ti181     Er183    9.991   .     S
Ti181     H190    10.004   .     S
Ti181     Ti182    10.008   .     S
Ti181     Ti1512    10.012   .     S
Ti182     Er184    9.991   .     S
Ti182     H189    10.004   .     S
Ti182     Ti452    10.012   .     S
Er183     Er184    9.991   .     S
Er183     He185    9.993   .     S
Er183     Ce875    10.004   .     S
Er184     He188    9.993   .     S
Er184     Ce880    10.004   .     S
He185     H190    9.995   .     S
He185     B186    9.994   .     S
He185     He828    10.002   .     S
B186     Li187    9.99   .     S
B186     He188    9.994   .     S
B186     Be299    9.997   .     S
Li187     H190    10.01   .     S
Li187     H189    10.01   .     S
Li187     Li257    10.012   .     S
He188     H189    9.995   .     S
He188     He738    10.002   .     S
Ti191     Er194    9.991   .     S
Ti191     H199    10.004   .     S
Ti191     Ti192    10.008   .     S
Ti191     Ti1482    10.012   .     S
Ti192     Er193    9.991   .     S
Ti192     H200    10.004   .     S
Ti192     Ti1142    10.012   .     S
Er193     Er194    9.991   .     S
Er193     He195    9.993   .     S
Er193     Ce669    10.004   .     S
Er194     He198    9.993   .     S
Er194     Ce708    10.004   .     S
He195     H200    9.995   .     S
He195     B196    9.994   .     S
He195     He565    10.002   .     S
B196     Li197    9.99   .     S
B196     He198    9.994   .     S
B196     Be295    9.997   .     S
Li197     H200    10.01   .     S
Li197     H199    10.01   .     S
Li197     Li277    10.012   .     S
He198     H199    9.995   .     S
He198     He558    10.002   .     S
Ti201     Er204    9.991   .     S
Ti201     H209    10.004   .     S
Ti201     Ti202    10.008   .     S
Ti201     Ti1122    10.012   1_556     S
Ti202     Er203    9.991   .     S
Ti202     H210    10.004   .     S
Ti202     Ti462    10.012   1_556     S
Er203     Er204    9.991   .     S
Er203     He205    9.993   .     S
Er203     Ce1388    10.004   .     S
Er204     He208    9.993   .     S
Er204     Ce1391    10.004   .     S
He205     H210    9.995   .     S
He205     B206    9.994   .     S
He205     He1338    10.002   .     S
B206     Li207    9.99   .     S
B206     He208    9.994   .     S
B206     Be297    9.997   .     S
Li207     H210    10.01   .     S
Li207     H209    10.01   .     S
Li207     Li287    10.012   .     S
He208     H209    9.995   .     S
He208     He1325    10.002   .     S
Ti211     Er214    9.991   .     S
Ti211     H219    10.004   .     S
Ti211     Ti212    10.008   .     S
Ti211     Ti1442    10.012   1_655     S
Ti212     Er213    9.991   .     S
Ti212     H220    10.004   .     S
Ti212     Ti1252    10.012   1_655     S
Er213     Er214    9.991   .     S
Er213     He215    9.993   .     S
Er213     Ce856    10.004   .     S
Er214     He218    9.993   .     S
Er214     Ce851    10.004   .     S
He215     H220    9.995   .     S
He215     B216    9.994   .     S
He215     He805    10.002   .     S
B216     Li217    9.99   .     S
B216     He218    9.994   .     S
B216     Be292    9.997   .     S
Li217     H219    10.01   .     S
Li217     H220    10.01   .     S
Li217     Li227    10.012   .     S
He218     H219    9.995   .     S
He218     He825    10.002   .     S
Ti221     Er224    9.991   .     S
Ti221     H229    10.004   .     S
Ti221     Ti222    10.008   .     S
Ti221     Ti1542    10.012   1_655     S
Ti222     Er223    9.991   .     S
Ti222     H230    10.004   .     S
Ti222     Ti1092    10.012   1_655     S
Er223     Er224    9.991   .     S
Er223     He225    9.993   .     S
Er223     Ce1035    10.004   .     S
Er224     He228    9.993   .     S
Er224     Ce1024    10.004   .     S
He225     H230    9.995   .     S
He225     B226    9.994   .     S
He225     He925    10.002   .     S
B226     Li227    9.99   .     S
B226     He228    9.994   .     S
B226     Be291    9.997   .     S
Li227     H230    10.01   .     S
Li227     H229    10.01   .     S
He228     H229    9.995   .     S
He228     He988    10.002   .     S
Ti231     Er233    9.991   .     S
Ti231     H240    10.004   .     S
Ti231     Ti232    10.008   .     S
Ti231     Ti422    10.012   .     S
Ti232     Er234    9.991   .     S
Ti232     H239    10.004   .     S
Ti232     Ti1112    10.012   .     S
Er233     Er234    9.991   .     S
Er233     He235    9.993   .     S
Er233     Ce691    10.004   .     S
Er234     He238    9.993   .     S
Er234     Ce664    10.004   .     S
He235     H240    9.995   .     S
He235     B236    9.994   .     S
He235     He575    10.002   .     S
B236     Li237    9.99   .     S
B236     He238    9.994   .     S
B236     Be302    9.997   .     S
Li237     H239    10.01   .     S
Li237     H240    10.01   .     S
Li237     Li357    10.012   .     S
He238     H239    9.995   .     S
He238     He568    10.002   .     S
H240     S1629    10.026   .     S
Ti241     Er244    9.991   .     S
Ti241     H249    10.004   .     S
Ti241     Ti242    10.008   .     S
Ti241     Ti432    10.012   1_565     S
Ti242     Er243    9.991   .     S
Ti242     H250    10.004   .     S
Ti242     Ti1532    10.012   1_565     S
Er243     Er244    9.991   .     S
Er243     He245    9.993   .     S
Er243     Ce1028    10.004   .     S
Er244     He248    9.993   .     S
Er244     Ce1043    10.004   .     S
He245     H250    9.995   .     S
He245     B246    9.994   .     S
He245     He985    10.002   .     S
B246     Li247    9.99   .     S
B246     He248    9.994   .     S
B246     Be294    9.997   .     S
Li247     H250    10.01   .     S
Li247     H249    10.01   .     S
Li247     Li267    10.012   .     S
He248     H249    9.995   .     S
He248     He915    10.002   .     S
Ti251     Er254    9.991   .     S
Ti251     H260    10.004   .     S
Ti251     Ti252    10.008   .     S
Ti251     Ti1492    10.012   .     S
Ti252     Er253    9.991   .     S
Ti252     H259    10.004   .     S
Ti252     Ti412    10.012   .     S
Er253     Er254    9.991   .     S
Er253     He258    9.993   .     S
Er253     Ce700    10.004   .     S
Er254     He255    9.993   .     S
Er254     Ce703    10.004   .     S
He255     H260    9.995   .     S
He255     B256    9.994   .     S
He255     He555    10.002   .     S
B256     Li257    9.99   .     S
B256     He258    9.994   .     S
B256     Be300    9.997   .     S
Li257     H259    10.01   .     S
Li257     H260    10.01   .     S
He258     H259    9.995   .     S
He258     He578    10.002   .     S
Ti261     Er263    9.991   .     S
Ti261     H270    10.004   .     S
Ti261     Ti262    10.008   .     S
Ti261     Ti1502    10.012   1_565     S
Ti262     Er264    9.991   .     S
Ti262     H269    10.004   .     S
Ti262     Ti532    10.012   1_565     S
Er263     Er264    9.991   .     S
Er263     He265    9.993   .     S
Er263     Ce1404    10.004   .     S
Er264     He268    9.993   .     S
Er264     Ce1384    10.004   .     S
He265     H270    9.995   .     S
He265     B266    9.994   .     S
He265     He1285    10.002   .     S
B266     Li267    9.99   .     S
B266     He268    9.994   .     S
B266     Be293    9.997   .     S
Li267     H270    10.01   .     S
Li267     H269    10.01   .     S
He268     H269    9.995   .     S
He268     He1335    10.002   .     S
Ti271     Er273    9.991   .     S
Ti271     H279    10.004   .     S
Ti271     Ti272    10.008   .     S
Ti271     Ti1522    10.012   .     S
Ti272     Er274    9.991   .     S
Ti272     H280    10.004   .     S
Ti272     Ti1182    10.012   .     S
Er273     Er274    9.991   .     S
Er273     He278    9.993   .     S
Er273     Ce1428    10.004   .     S
Er274     He275    9.993   .     S
Er274     Ce1412    10.004   .     S
He275     H280    9.995   .     S
He275     B276    9.994   .     S
He275     He1328    10.002   .     S
B276     Li277    9.99   .     S
B276     He278    9.994   .     S
B276     Be296    9.997   .     S
Li277     H280    10.01   .     S
Li277     H279    10.01   .     S
He278     H279    9.995   .     S
He278     He1288    10.002   .     S
Ti281     Er283    9.991   .     S
Ti281     H289    10.004   .     S
Ti281     Ti282    10.008   .     S
Ti281     Ti1162    10.012   1_556     S
Ti282     Er284    9.991   .     S
Ti282     H290    10.004   .     S
Ti282     Ti392    10.012   1_556     S
Er283     Er284    9.991   .     S
Er283     He288    9.993   .     S
Er283     Ce860    10.004   .     S
Er284     He285    9.993   .     S
Er284     Ce863    10.004   .     S
He285     H290    9.995   .     S
He285     B286    9.994   .     S
He285     He735    10.002   .     S
B286     Li287    9.99   .     S
B286     He288    9.994   .     S
B286     Be298    9.997   .     S
Li287     H290    10.01   .     S
Li287     H289    10.01   .     S
He288     H289    9.995   .     S
He288     He808    10.002   .     S
Be291     Ce323    9.993   .     S
Be291     Ce320    9.993   .     S
Be291     Be292    9.983   .     S
Be292     Ce319    9.993   .     S
Be292     Ce324    9.993   .     S
Be293     Ce316    9.993   .     S
Be293     Ce311    9.993   .     S
Be293     Be294    9.983   .     S
Be294     Ce315    9.993   .     S
Be294     Ce312    9.993   .     S
Be295     Ce307    9.993   .     S
Be295     Ce304    9.993   .     S
Be295     Be296    9.983   .     S
Be296     Ce303    9.993   .     S
Be296     Ce308    9.993   .     S
Be297     Ce347    9.993   .     S
Be297     Ce345    9.993   .     S
Be297     Be298    9.983   .     S
Be298     Ce344    9.993   .     S
Be298     Ce348    9.993   .     S
Be299     Ce335    9.993   .     S
Be299     Ce340    9.993   .     S
Be299     Be300    9.983   .     S
Be300     Ce336    9.993   .     S
Be300     Ce341    9.993   .     S
Be301     Ce327    9.993   .     S
Be301     Ce331    9.993   .     S
Be301     B356    9.997   .     S
Be301     Be302    9.983   .     S
Be302     Ce328    9.993   .     S
Be302     Ce332    9.993   .     S
Ce303     V306    9.993   .     S
Ce303     Er1323    10.004   .     S
Ce303     Ce304    9.985   .     S
Ce304     V305    9.993   .     S
Ce304     Er554    10.004   .     S
V305     V310    9.993   .     S
V305     V306    9.993   .     S
V305     V342    9.993   .     S
V306     V309    9.993   .     S
V306     V346    9.993   .     S
Ce307     V310    9.993   .     S
Ce307     Er563    10.004   .     S
Ce307     Ce308    9.985   .     S
Ce308     V309    9.993   .     S
Ce308     Er1283    10.004   .     S
V309     V310    9.993   .     S
V309     V313    9.993   .     S
V310     V330    9.993   .     S
Ce311     V313    9.993   .     S
Ce311     Er1284    10.004   .     S
Ce311     Ce312    9.985   .     S
Ce312     V314    9.993   .     S
Ce312     Er914    10.004   .     S
V313     V317    9.993   .     S
V313     V314    9.993   .     S
V314     V318    9.993   .     S
V314     V329    9.993   .     S
Ce315     V318    9.993   .     S
Ce315     Er983    10.004   .     S
Ce315     Ce316    9.985   .     S
Ce316     V317    9.993   .     S
Ce316     Er1333    10.004   .     S
V317     V318    9.993   .     S
V317     V350    9.993   .     S
V318     V321    9.993   .     S
Ce319     V322    9.993   .     S
Ce319     Er803    10.004   .     S
Ce319     Ce320    9.985   .     S
Ce320     V321    9.993   .     S
Ce320     Er984    10.004   .     S
V321     V326    9.993   .     S
V321     V322    9.993   .     S
V322     V325    9.993   .     S
V322     V349    9.993   .     S
Ce323     V326    9.993   .     S
Ce323     Er924    10.004   .     S
Ce323     Ce324    9.985   .     S
Ce324     V325    9.993   .     S
Ce324     Er824    10.004   .     S
V325     V326    9.993   .     S
V325     V338    9.993   .     S
V326     V334    9.993   .     S
Ce327     V329    9.993   .     S
Ce327     Er913    10.004   .     S
Ce327     Ce328    9.985   .     S
Ce328     V330    9.993   .     S
Ce328     Er564    10.004   .     S
V329     V334    9.993   .     S
V329     V330    9.993   .     S
V330     V333    9.993   .     S
Ce331     V334    9.993   .     S
Ce331     Er923    10.004   .     S
Ce331     Ce332    9.985   .     S
Ce332     V333    9.993   .     S
Ce332     Er573    10.004   .     S
V333     V334    9.993   .     S
V333     V337    9.993   .     S
Ce335     V338    9.993   .     S
Ce335     Er823    10.004   .     S
Ce335     Ce336    9.985   .     S
Ce336     V337    9.993   .     S
Ce336     Er574    10.004   .     S
V337     V342    9.993   .     S
V337     V338    9.993   .     S
V338     V339    9.993   .     S
V339     Ce340    9.993   .     S
V339     V343    9.993   .     S
V339     V342    9.993   .     S
Ce340     Er733    10.004   .     S
Ce340     Ce341    9.985   .     S
Ce341     V342    9.993   .     S
Ce341     Er553    10.004   .     S
V343     Ce344    9.993   .     S
V343     V349    9.993   .     S
V343     V346    9.993   .     S
Ce344     Er734    10.004   .     S
Ce344     Ce345    9.985   .     S
Ce345     V346    9.993   .     S
Ce345     Er1324    10.004   .     S
V346     V350    9.993   .     S
Ce347     V350    9.993   .     S
Ce347     Er1334    10.004   .     S
Ce347     Ce348    9.985   .     S
Ce348     V349    9.993   .     S
Ce348     Er804    10.004   .     S
V349     V350    9.993   .     S
Ti351     Er353    9.991   .     S
Ti351     H360    10.004   .     S
Ti351     Ti352    10.008   .     S
Ti351     Ti442    10.012   .     S
Ti352     Er354    9.991   .     S
Ti352     H359    10.004   .     S
Ti352     Ti1172    10.012   .     S
Er353     Er354    9.991   .     S
Er353     He355    9.993   .     S
Er353     Ce1067    10.004   .     S
Er354     He358    9.993   .     S
Er354     Ce1052    10.004   .     S
He355     H360    9.995   .     S
He355     B356    9.994   .     S
He355     He918    10.002   .     S
B356     Li357    9.99   .     S
B356     He358    9.994   .     S
Li357     H360    10.01   .     S
Li357     H359    10.01   .     S
He358     H359    9.995   .     S
He358     He928    10.002   .     S
H359     S1631    10.026   .     S
Ti361     Er363    9.991   .     S
Ti361     H370    10.004   .     S
Ti361     Ti362    10.008   .     S
Ti361     Ti1131    10.012   1_655     S
Ti362     Er364    9.991   1_554     S
Ti362     H369    10.004   .     S
Ti362     Ti1452    10.012   1_654     S
Er363     Er364    9.991   1_554     S
Er363     He368    9.993   .     S
Er363     Ce872    10.004   .     S
Er364     Ti362    9.991   1_556     S
Er364     Er363    9.991   1_556     S
Er364     He365    9.993   1_556     S
Er364     Ce888    10.004   .     S
He365     Er364    9.993   1_554     S
He365     H369    9.995   .     S
He365     B366    9.994   .     S
He365     He818    10.002   1_554     S
B366     Li367    9.99   .     S
B366     He368    9.994   .     S
B366     Be476    9.997   .     S
Li367     H370    10.01   .     S
Li367     H369    10.01   .     S
Li367     Li387    10.012   .     S
He368     H370    9.995   .     S
He368     He775    10.002   .     S
Ti371     Er373    9.991   .     S
Ti371     H379    10.004   .     S
Ti371     Ti372    10.008   .     S
Ti371     Ti1472    10.012   .     S
Ti372     Er374    9.991   .     S
Ti372     H380    10.004   .     S
Ti372     Ti1151    10.012   .     S
Er373     Er374    9.991   .     S
Er373     He378    9.993   .     S
Er373     Ce689    10.004   .     S
Er374     He375    9.993   .     S
Er374     Ce684    10.004   .     S
He375     H380    9.995   .     S
He375     B376    9.994   .     S
He375     He715    10.002   .     S
B376     Li377    9.99   .     S
B376     He378    9.994   .     S
B376     Be477    9.997   .     S
Li377     H380    10.01   .     S
Li377     H379    10.01   .     S
Li377     Li407    10.012   .     S
He378     H379    9.995   .     S
He378     He625    10.002   .     S
Ti381     Er383    9.991   1_545     S
Ti381     H390    10.004   .     S
Ti381     Ti382    10.008   .     S
Ti381     Ti1082    10.012   1_645     S
Ti382     Er384    9.991   .     S
Ti382     H389    10.004   .     S
Ti382     Ti1462    10.012   1_655     S
Er383     Ti381    9.991   1_565     S
Er383     Er384    9.991   1_565     S
Er383     He388    9.993   1_565     S
Er383     Ce1060    10.004   .     S
Er384     Er383    9.991   1_545     S
Er384     He385    9.993   .     S
Er384     Ce1064    10.004   .     S
He385     H389    9.995   .     S
He385     B386    9.994   .     S
He385     He955    10.002   .     S
B386     Li387    9.99   .     S
B386     He388    9.994   .     S
B386     Be475    9.997   .     S
Li387     H390    10.01   .     S
Li387     H389    10.01   .     S
He388     Er383    9.993   1_545     S
He388     H390    9.995   .     S
He388     He1075    10.002   1_545     S
Ti391     Er394    9.991   .     S
Ti391     H399    10.004   .     S
Ti391     Ti392    10.008   .     S
Ti391     Ti1161    10.012   .     S
Ti392     Er393    9.991   1_554     S
Ti392     H400    10.004   .     S
Ti392     Ti282    10.012   1_554     S
Er393     Ti392    9.991   1_556     S
Er393     Er394    9.991   1_556     S
Er393     He398    9.993   1_556     S
Er393     Ce864    10.004   .     S
Er394     Er393    9.991   1_554     S
Er394     He395    9.993   .     S
Er394     Ce868    10.004   .     S
He395     H399    9.995   .     S
He395     B396    9.994   .     S
He395     He778    10.002   .     S
B396     Li397    9.99   .     S
B396     He398    9.994   .     S
B396     Be479    9.997   .     S
Li397     H400    10.01   .     S
Li397     H399    10.01   .     S
Li397     Li427    10.012   .     S
He398     Er393    9.993   1_554     S
He398     H400    9.995   .     S
He398     He728    10.002   1_554     S
H399     S1624    10.026   .     S
Ti401     Er403    9.991   1_554     S
Ti401     H410    10.004   .     S
Ti401     Ti402    10.008   .     S
Ti401     Ti1611    10.012   1_554     S
Ti402     Er404    9.991   1_545     S
Ti402     H409    10.004   .     S
Ti402     Ti1101    10.012   1_545     S
Er403     Ti401    9.991   1_556     S
Er403     Er404    9.991   1_546     S
Er403     He405    9.993   1_556     S
Er403     Ce1401    10.004   .     S
Er404     Ti402    9.991   1_565     S
Er404     Er403    9.991   1_564     S
Er404     He408    9.993   1_565     S
Er404     Ce1417    10.004   .     S
He405     Er403    9.993   1_554     S
He405     H410    9.995   .     S
He405     B406    9.994   .     S
He405     He1308    10.002   1_554     S
B406     Li407    9.99   .     S
B406     He408    9.994   .     S
B406     Be478    9.997   .     S
Li407     H409    10.01   .     S
Li407     H410    10.01   .     S
He408     Er404    9.993   1_545     S
He408     H409    9.995   .     S
He408     He1318    10.002   1_545     S
Ti411     Er413    9.991   .     S
Ti411     H419    10.004   .     S
Ti411     Ti412    10.008   .     S
Ti411     Ti1491    10.012   .     S
Ti412     Er414    9.991   .     S
Ti412     H420    10.004   .     S
Er413     Er414    9.991   .     S
Er413     He418    9.993   .     S
Er413     Ce696    10.004   .     S
Er414     He415    9.993   .     S
Er414     Ce701    10.004   .     S
He415     H420    9.995   .     S
He415     B416    9.994   .     S
He415     He588    10.002   .     S
B416     Li417    9.99   .     S
B416     He418    9.994   .     S
B416     Be481    9.997   .     S
Li417     H420    10.01   .     S
Li417     H419    10.01   .     S
Li417     Li437    10.012   .     S
He418     H419    9.995   .     S
He418     He628    10.002   .     S
Ti421     Er424    9.991   .     S
Ti421     H429    10.004   .     S
Ti421     Ti422    10.008   .     S
Ti421     Ti1111    10.012   .     S
Ti422     Er423    9.991   .     S
Ti422     H430    10.004   .     S
Er423     Er424    9.991   .     S
Er423     He425    9.993   .     S
Er423     Ce692    10.004   .     S
Er424     He428    9.993   .     S
Er424     Ce677    10.004   .     S
He425     H430    9.995   .     S
He425     B426    9.994   .     S
He425     He585    10.002   .     S
B426     Li427    9.99   .     S
B426     He428    9.994   .     S
B426     Be480    9.997   .     S
Li427     H430    10.01   .     S
Li427     H429    10.01   .     S
He428     H429    9.995   .     S
He428     He718    10.002   .     S
H430     S1621    10.026   .     S
Ti431     Er434    9.991   .     S
Ti431     H439    10.004   .     S
Ti431     Ti432    10.008   .     S
Ti431     Ti1531    10.012   .     S
Ti432     Er433    9.991   1_545     S
Ti432     H440    10.004   .     S
Ti432     Ti241    10.012   1_545     S
Er433     Ti432    9.991   1_565     S
Er433     Er434    9.991   1_565     S
Er433     He435    9.993   1_565     S
Er433     Ce1044    10.004   .     S
Er434     Er433    9.991   1_545     S
Er434     He438    9.993   .     S
Er434     Ce1049    10.004   .     S
He435     Er433    9.993   1_545     S
He435     H440    9.995   .     S
He435     B436    9.994   .     S
He435     He908    10.002   1_545     S
B436     Li437    9.99   .     S
B436     He438    9.994   .     S
B436     Be482    9.997   .     S
Li437     H440    10.01   .     S
Li437     H439    10.01   .     S
He438     H439    9.995   .     S
He438     He958    10.002   .     S
Ti441     Er443    9.991   .     S
Ti441     H449    10.004   .     S
Ti441     Ti442    10.008   .     S
Ti441     Ti1171    10.012   .     S
Ti442     Er444    9.991   .     S
Ti442     H450    10.004   .     S
Er443     Er444    9.991   .     S
Er443     He448    9.993   .     S
Er443     Ce1056    10.004   .     S
Er444     He445    9.993   .     S
Er444     Ce1068    10.004   .     S
He445     H450    9.995   .     S
He445     B446    9.994   .     S
He445     He905    10.002   .     S
B446     Li447    9.99   .     S
B446     He448    9.994   .     S
B446     Be471    9.997   .     S
Li447     H450    10.01   .     S
Li447     H449    10.01   .     S
Li447     Li467    10.012   .     S
He448     H449    9.995   .     S
He448     He1078    10.002   .     S
Ti451     Er453    9.991   .     S
Ti451     H459    10.004   .     S
Ti451     Ti452    10.008   .     S
Ti451     Ti1511    10.012   .     S
Ti452     Er454    9.991   .     S
Ti452     H460    10.004   .     S
Er453     Er454    9.991   .     S
Er453     He458    9.993   .     S
Er453     Ce885    10.004   .     S
Er454     He455    9.993   .     S
Er454     Ce879    10.004   .     S
He455     H460    9.995   .     S
He455     B456    9.994   .     S
He455     He725    10.002   .     S
B456     Li457    9.99   .     S
B456     He458    9.994   .     S
B456     Be473    9.997   .     S
Li457     H460    10.01   .     S
Li457     H459    10.01   .     S
Li457     Li537    10.012   .     S
He458     H459    9.995   .     S
He458     He815    10.002   .     S
Ti461     Er463    9.991   .     S
Ti461     H469    10.004   .     S
Ti461     Ti462    10.008   .     S
Ti461     Ti1121    10.012   .     S
Ti462     Er464    9.991   1_554     S
Ti462     H470    10.004   .     S
Ti462     Ti202    10.012   1_554     S
Er463     Er464    9.991   1_554     S
Er463     He468    9.993   .     S
Er463     Ce1396    10.004   .     S
Er464     Ti462    9.991   1_556     S
Er464     Er463    9.991   1_556     S
Er464     He465    9.993   1_556     S
Er464     Ce1389    10.004   .     S
He465     Er464    9.993   1_554     S
He465     H470    9.995   .     S
He465     B466    9.994   .     S
He465     He1345    10.002   1_554     S
B466     Li467    9.99   .     S
B466     He468    9.994   .     S
B466     Be472    9.997   .     S
Li467     H470    10.01   .     S
Li467     H469    10.01   .     S
He468     H469    9.995   .     S
He468     He1315    10.002   .     S
Be471     Ce524    9.993   .     S
Be471     Ce516    9.993   .     S
Be471     Be472    9.983   .     S
Be472     Ce525    9.993   .     S
Be472     Ce517    9.993   .     S
Be473     Ce513    9.993   .     S
Be473     Ce529    9.993   .     S
Be473     Be474    9.983   .     S
Be474     Ce528    9.993   .     S
Be474     Ce512    9.993   .     S
Be474     B536    9.997   .     S
Be475     Ce520    9.993   .     S
Be475     Ce483    9.993   .     S
Be475     Be476    9.983   .     S
Be476     Ce484    9.993   .     S
Be476     Ce519    9.993   .     S
Be477     Ce504    9.993   .     S
Be477     Ce509    9.993   .     S
Be477     Be478    9.983   .     S
Be478     Ce508    9.993   .     S
Be478     Ce503    9.993   .     S
Be479     Ce495    9.993   .     S
Be479     Ce499    9.993   .     S
Be479     Be480    9.983   .     S
Be480     Ce500    9.993   .     S
Be480     Ce496    9.993   .     S
Be481     Ce487    9.993   .     S
Be481     Ce492    9.993   .     S
Be481     Be482    9.983   .     S
Be482     Ce491    9.993   .     S
Be482     Ce488    9.993   .     S
Ce483     V486    9.993   .     S
Ce483     Er954    10.004   .     S
Ce483     Ce484    9.985   .     S
Ce484     V485    9.993   .     S
Ce484     Er774    10.004   .     S
V485     V522    9.993   .     S
V485     V486    9.993   .     S
V485     V501    9.993   .     S
V486     V494    9.993   .     S
V486     V521    9.993   .     S
Ce487     V490    9.993   .     S
Ce487     Er624    10.004   .     S
Ce487     Ce488    9.985   .     S
Ce488     V489    9.993   .     S
Ce488     Er903    10.004   .     S
V489     V490    9.993   .     S
V489     V494    9.993   .     S
V489     V518    9.993   .     S
V490     V493    9.993   .     S
V490     V507    9.993   .     S
Ce491     V494    9.993   .     S
Ce491     Er953    10.004   .     S
Ce491     Ce492    9.985   .     S
Ce492     V493    9.993   .     S
Ce492     Er584    10.004   .     S
V493     V494    9.993   .     S
V493     V502    9.993   .     S
Ce495     V498    9.993   .     S
Ce495     Er723    10.004   .     S
Ce495     Ce496    9.985   .     S
Ce496     V497    9.993   .     S
Ce496     Er713    10.004   .     S
V497     V502    9.993   .     S
V497     V498    9.993   .     S
V497     V505    9.993   .     S
V498     V514    9.993   .     S
V498     V501    9.993   .     S
Ce499     V501    9.993   .     S
Ce499     Er773    10.004   .     S
Ce499     Ce500    9.985   .     S
Ce500     V502    9.993   .     S
Ce500     Er583    10.004   .     S
V501     V502    9.993   .     S
Ce503     V506    9.993   .     S
Ce503     Er1303    10.004   .     S
Ce503     Ce504    9.985   .     S
Ce504     V505    9.993   .     S
Ce504     Er714    10.004   .     S
V505     V507    9.993   .     S
V505     V506    9.993   .     S
V506     V511    9.993   .     S
V506     V510    9.993   .     S
V507     Ce509    9.993   .     S
V507     V510    9.993   .     S
Ce508     V510    9.993   .     S
Ce508     Er1313    10.004   .     S
Ce508     Ce509    9.985   .     S
Ce509     Er623    10.004   .     S
V510     V515    9.993   .     S
V511     Ce512    9.993   1_554     S
V511     V514    9.993   .     S
V511     V530    9.993   .     S
Ce512     V511    9.993   1_556     S
Ce512     Er1304    10.004   .     S
Ce512     Ce513    9.985   .     S
Ce513     V514    9.993   1_556     S
Ce513     Er724    10.004   .     S
V514     Ce513    9.993   1_554     S
V514     V527    9.993   .     S
V515     Ce517    9.993   1_545     S
V515     V518    9.993   .     S
V515     V526    9.993   .     S
Ce516     V518    9.993   1_565     S
Ce516     Er904    10.004   .     S
Ce516     Ce517    9.985   .     S
Ce517     V515    9.993   1_565     S
Ce517     Er1314    10.004   .     S
V518     Ce516    9.993   1_545     S
V518     V523    9.993   .     S
Ce519     V522    9.993   .     S
Ce519     Er813    10.004   .     S
Ce519     Ce520    9.985   .     S
Ce520     V521    9.993   .     S
Ce520     Er1073    10.004   .     S
V521     V522    9.993   .     S
V521     V523    9.993   .     S
V522     V527    9.993   .     S
V523     Ce524    9.993   1_545     S
V523     V526    9.993   .     S
Ce524     V523    9.993   1_565     S
Ce524     Er1074    10.004   .     S
Ce524     Ce525    9.985   .     S
Ce525     V526    9.993   1_565     S
Ce525     Er1343    10.004   .     S
V526     Ce525    9.993   1_545     S
V526     V530    9.993   .     S
V527     Ce529    9.993   1_554     S
V527     V530    9.993   .     S
Ce528     V530    9.993   1_556     S
Ce528     Er1344    10.004   .     S
Ce528     Ce529    9.985   .     S
Ce529     V527    9.993   1_556     S
Ce529     Er814    10.004   .     S
V530     Ce528    9.993   1_554     S
Ti531     Er534    9.991   .     S
Ti531     H539    10.004   .     S
Ti531     Ti532    10.008   .     S
Ti531     Ti1501    10.012   .     S
Ti532     Er533    9.991   1_545     S
Ti532     H540    10.004   .     S
Ti532     Ti262    10.012   1_545     S
Er533     Ti532    9.991   1_565     S
Er533     Er534    9.991   1_565     S
Er533     He535    9.993   1_565     S
Er533     Ce1385    10.004   .     S
Er534     Er533    9.991   1_545     S
Er534     He538    9.993   .     S
Er534     Ce1409    10.004   .     S
He535     Er533    9.993   1_545     S
He535     H540    9.995   .     S
He535     B536    9.994   .     S
He535     He1348    10.002   1_545     S
B536     Li537    9.99   .     S
B536     He538    9.994   .     S
Li537     H540    10.01   .     S
Li537     H539    10.01   .     S
He538     H539    9.995   .     S
He538     He1305    10.002   .     S
Ti541     Er543    9.991   .     S
Ti541     H549    10.004   .     S
Ti541     Ti542    10.008   .     S
Ti541     Ti1291    10.012   .     S
Ti542     Er544    9.991   .     S
Ti542     H550    10.004   .     S
Ti542     Ti941    10.012   .     S
Er543     Er544    9.991   .     S
Er543     He548    9.993   .     S
Er543     Ce1248    10.004   .     S
Er544     He545    9.993   .     S
Er544     Ce1204    10.004   .     S
He545     H550    9.995   .     S
He545     B546    9.994   .     S
He545     He1145    10.002   .     S
B546     Li547    9.99   .     S
B546     He548    9.994   .     S
B546     Be659    9.997   .     S
Li547     H550    10.01   .     S
Li547     H549    10.01   .     S
Li547     Li567    10.012   .     S
He548     H549    9.995   .     S
He548     He1115    10.002   .     S
Ti551     Er553    9.991   .     S
Ti551     H560    10.004   .     S
Ti551     Ti552    10.008   .     S
Ti551     Ti732    10.012   .     S
Ti552     Er554    9.991   .     S
Ti552     H559    10.004   .     S
Ti552     Ti1322    10.012   .     S
Er553     Er554    9.991   .     S
Er553     He555    9.993   .     S
Er554     He558    9.993   .     S
He555     H560    9.995   .     S
He555     B556    9.994   .     S
B556     Li557    9.99   .     S
B556     He558    9.994   .     S
B556     Be657    9.997   .     S
Li557     H559    10.01   .     S
Li557     H560    10.01   .     S
Li557     Li597    10.012   .     S
He558     H559    9.995   .     S
Ti561     Er563    9.991   .     S
Ti561     H570    10.004   .     S
Ti561     Ti562    10.008   .     S
Ti561     Ti1281    10.012   .     S
Ti562     Er564    9.991   .     S
Ti562     H569    10.004   .     S
Ti562     Ti912    10.012   .     S
Er563     Er564    9.991   .     S
Er563     He565    9.993   .     S
Er564     He568    9.993   .     S
He565     H570    9.995   .     S
He565     B566    9.994   .     S
B566     Li567    9.99   .     S
B566     He568    9.994   .     S
B566     Be660    9.997   .     S
Li567     H569    10.01   .     S
Li567     H570    10.01   .     S
He568     H569    9.995   .     S
Ti571     Er573    9.991   .     S
Ti571     H580    10.004   .     S
Ti571     Ti572    10.008   .     S
Ti571     Ti922    10.012   .     S
Ti572     Er574    9.991   .     S
Ti572     H579    10.004   .     S
Ti572     Ti821    10.012   .     S
Er573     Er574    9.991   .     S
Er573     He575    9.993   .     S
Er574     He578    9.993   .     S
He575     H580    9.995   .     S
He575     B576    9.994   .     S
B576     Li577    9.99   .     S
B576     He578    9.994   .     S
B576     Be662    9.997   .     S
Li577     H579    10.01   .     S
Li577     H580    10.01   .     S
Li577     Li587    10.012   .     S
He578     H579    9.995   .     S
H580     S1630    10.026   .     S
Ti581     Er584    9.991   .     S
Ti581     H589    10.004   .     S
Ti581     Ti582    10.008   .     S
Ti581     Ti951    10.012   .     S
Ti582     Er583    9.991   .     S
Ti582     H590    10.004   .     S
Ti582     Ti771    10.012   .     S
Er583     Er584    9.991   .     S
Er583     He585    9.993   .     S
Er584     He588    9.993   .     S
He585     H590    9.995   .     S
He585     B586    9.994   .     S
B586     Li587    9.99   .     S
B586     He588    9.994   .     S
B586     Be661    9.997   .     S
Li587     H589    10.01   .     S
Li587     H590    10.01   .     S
He588     H589    9.995   .     S
H590     S1622    10.026   .     S
Ti591     Er594    9.991   .     S
Ti591     H600    10.004   .     S
Ti591     Ti592    10.008   .     S
Ti591     Ti1271    10.012   .     S
Ti592     Er593    9.991   .     S
Ti592     H599    10.004   .     S
Ti592     Ti761    10.012   .     S
Er593     Er594    9.991   .     S
Er593     He598    9.993   .     S
Er593     Ce1572    10.004   .     S
Er594     He595    9.993   .     S
Er594     Ce1576    10.004   .     S
He595     H600    9.995   .     S
He595     B596    9.994   .     S
He595     He1498    10.002   .     S
B596     Li597    9.99   .     S
B596     He598    9.994   .     S
B596     Be658    9.997   .     S
Li597     H600    10.01   .     S
Li597     H599    10.01   .     S
He598     H599    9.995   .     S
He598     He1485    10.002   .     S
Ti601     Er604    9.991   .     S
Ti601     H609    10.004   .     S
Ti601     Ti602    10.008   .     S
Ti601     Ti1352    10.012   1_545     S
Ti602     Er603    9.991   .     S
Ti602     H610    10.004   .     S
Ti602     Ti962    10.012   1_545     S
Er603     Er604    9.991   .     S
Er603     He605    9.993   .     S
Er603     Ce1604    10.004   .     S
Er604     He608    9.993   .     S
Er604     Ce1583    10.004   .     S
He605     H610    9.995   .     S
He605     B606    9.994   .     S
He605     He1475    10.002   .     S
B606     Li607    9.99   .     S
B606     He608    9.994   .     S
B606     Be653    9.997   .     S
Li607     H610    10.01   .     S
Li607     H609    10.01   .     S
Li607     Li627    10.012   .     S
He608     H609    9.995   .     S
He608     He1495    10.002   .     S
Ti611     Er613    9.991   .     S
Ti611     H620    10.004   .     S
Ti611     Ti612    10.008   .     S
Ti611     Ti972    10.012   1_455     S
Ti612     Er614    9.991   .     S
Ti612     H619    10.004   .     S
Ti612     Ti742    10.012   1_455     S
Er613     Er614    9.991   .     S
Er613     He615    9.993   .     S
Er613     Ce1609    10.004   .     S
Er614     He618    9.993   .     S
Er614     Ce1568    10.004   .     S
He615     H620    9.995   .     S
He615     B616    9.994   .     S
He615     He1478    10.002   .     S
B616     Li617    9.99   .     S
B616     He618    9.994   .     S
B616     Be651    9.997   .     S
Li617     H619    10.01   .     S
Li617     H620    10.01   .     S
Li617     Li647    10.012   .     S
He618     H619    9.995   .     S
He618     He1488    10.002   .     S
Ti621     Er623    9.991   .     S
Ti621     H630    10.004   .     S
Ti621     Ti622    10.008   .     S
Ti621     Ti1312    10.012   1_545     S
Ti622     Er624    9.991   .     S
Ti622     H629    10.004   .     S
Ti622     Ti902    10.012   1_545     S
Er623     Er624    9.991   .     S
Er623     He625    9.993   .     S
Er624     He628    9.993   .     S
He625     H630    9.995   .     S
He625     B626    9.994   .     S
B626     Li627    9.99   .     S
B626     He628    9.994   .     S
B626     Be654    9.997   .     S
Li627     H630    10.01   .     S
Li627     H629    10.01   .     S
He628     H629    9.995   .     S
Ti631     Er633    9.991   .     S
Ti631     H639    10.004   .     S
Ti631     Ti632    10.008   .     S
Ti631     Ti752    10.012   1_554     S
Ti632     Er634    9.991   .     S
Ti632     H640    10.004   .     S
Ti632     Ti1262    10.012   1_554     S
Er633     Er634    9.991   .     S
Er633     He638    9.993   .     S
Er633     Ce1221    10.004   .     S
Er634     He635    9.993   .     S
Er634     Ce1211    10.004   .     S
He635     H640    9.995   .     S
He635     B636    9.994   .     S
He635     He1118    10.002   .     S
B636     Li637    9.99   .     S
B636     He638    9.994   .     S
B636     Be656    9.997   .     S
Li637     H640    10.01   .     S
Li637     H639    10.01   .     S
Li637     Li717    10.012   .     S
He638     H639    9.995   .     S
He638     He1158    10.002   .     S
Ti641     Er644    9.991   .     S
Ti641     H650    10.004   .     S
Ti641     Ti642    10.008   .     S
Ti641     Ti932    10.012   1_455     S
Ti642     Er643    9.991   .     S
Ti642     H649    10.004   .     S
Ti642     Ti782    10.012   1_455     S
Er643     Er644    9.991   .     S
Er643     He645    9.993   .     S
Er643     Ce1216    10.004   .     S
Er644     He648    9.993   .     S
Er644     Ce1207    10.004   .     S
He645     H649    9.995   .     S
He645     B646    9.994   .     S
He645     He1155    10.002   .     S
B646     Li647    9.99   .     S
B646     He648    9.994   .     S
B646     Be652    9.997   .     S
Li647     H649    10.01   .     S
Li647     H650    10.01   .     S
He648     H650    9.995   .     S
He648     He1148    10.002   .     S
Be651     Ce673    9.993   .     S
Be651     Ce680    9.993   .     S
Be651     Be652    9.983   .     S
Be652     Ce672    9.993   .     S
Be652     Ce681    9.993   .     S
Be653     Ce697    9.993   .     S
Be653     Ce688    9.993   .     S
Be653     Be654    9.983   .     S
Be654     Ce696    9.993   .     S
Be654     Ce689    9.993   .     S
Be655     Ce677    9.993   .     S
Be655     Ce684    9.993   .     S
Be655     B716    9.997   .     S
Be655     Be656    9.983   .     S
Be656     Ce685    9.993   .     S
Be656     Ce676    9.993   .     S
Be657     Ce708    9.993   .     S
Be657     Ce703    9.993   .     S
Be657     Be658    9.983   .     S
Be658     Ce709    9.993   .     S
Be658     Ce704    9.993   .     S
Be659     Ce668    9.993   .     S
Be659     Ce665    9.993   .     S
Be659     Be660    9.983   .     S
Be660     Ce664    9.993   .     S
Be660     Ce669    9.993   .     S
Be661     Ce692    9.993   .     S
Be661     Ce701    9.993   .     S
Be661     Be662    9.983   .     S
Be662     Ce700    9.993   .     S
Be662     Ce691    9.993   .     S
V663     Ce665    9.993   .     S
V663     V667    9.993   .     S
V663     V666    9.993   .     S
V663     V675    9.993   .     S
Ce664     V666    9.993   .     S
Ce664     Ce665    9.985   .     S
Ce665     Er1114    10.004   .     S
V666     V670    9.993   .     S
V666     V694    9.993   .     S
V667     Ce668    9.993   .     S
V667     V670    9.993   .     S
V667     V674    9.993   .     S
Ce668     Er1143    10.004   .     S
Ce668     Ce669    9.985   .     S
Ce669     V670    9.993   .     S
V670     V710    9.993   .     S
V671     Ce673    9.993   .     S
V671     V682    9.993   .     S
V671     V674    9.993   .     S
V671     V707    9.993   .     S
Ce672     V674    9.993   .     S
Ce672     Er1144    10.004   .     S
Ce672     Ce673    9.985   .     S
Ce673     Er1484    10.004   .     S
V674     V679    9.993   .     S
V675     Ce676    9.993   .     S
V675     V678    9.993   .     S
V675     V686    9.993   .     S
Ce676     Er1113    10.004   .     S
Ce676     Ce677    9.985   .     S
Ce677     V678    9.993   .     S
V678     V693    9.993   .     S
V678     V683    9.993   .     S
V679     Ce681    9.993   .     S
V679     V686    9.993   .     S
V679     V682    9.993   .     S
Ce680     V682    9.993   .     S
Ce680     Er1474    10.004   .     S
Ce680     Ce681    9.985   .     S
Ce681     Er1154    10.004   .     S
V682     V687    9.993   .     S
V683     Ce684    9.993   .     S
V683     V690    9.993   .     S
V683     V686    9.993   .     S
Ce684     Ce685    9.985   .     S
Ce685     V686    9.993   .     S
Ce685     Er1153    10.004   .     S
V687     Ce688    9.993   .     S
V687     V698    9.993   .     S
V687     V690    9.993   .     S
Ce688     Er1473    10.004   .     S
Ce688     Ce689    9.985   .     S
Ce689     V690    9.993   .     S
V690     V695    9.993   .     S
Ce691     V694    9.993   .     S
Ce691     Ce692    9.985   .     S
Ce692     V693    9.993   .     S
V693     V699    9.993   .     S
V693     V694    9.993   .     S
V694     V702    9.993   .     S
V695     Ce696    9.993   .     S
V695     V699    9.993   .     S
V695     V698    9.993   .     S
Ce696     Ce697    9.985   .     S
Ce697     V698    9.993   .     S
Ce697     Er1493    10.004   .     S
V698     V705    9.993   .     S
V699     Ce701    9.993   .     S
V699     V702    9.993   .     S
Ce700     V702    9.993   .     S
Ce700     Ce701    9.985   .     S
V702     V706    9.993   .     S
Ce703     V706    9.993   .     S
Ce703     Ce704    9.985   .     S
Ce704     V705    9.993   .     S
Ce704     Er1494    10.004   .     S
V705     V706    9.993   .     S
V705     V707    9.993   .     S
V706     V710    9.993   .     S
V707     Ce709    9.993   .     S
V707     V710    9.993   .     S
Ce708     V710    9.993   .     S
Ce708     Ce709    9.985   .     S
Ce709     Er1483    10.004   .     S
Ti711     Er713    9.991   .     S
Ti711     H720    10.004   .     S
Ti711     Ti712    10.008   .     S
Ti711     Ti721    10.012   1_554     S
Ti712     Er714    9.991   .     S
Ti712     H719    10.004   .     S
Ti712     Ti1302    10.012   1_554     S
Er713     Er714    9.991   .     S
Er713     He718    9.993   .     S
Er714     He715    9.993   .     S
He715     H719    9.995   .     S
He715     B716    9.994   .     S
B716     Li717    9.99   .     S
B716     He718    9.994   .     S
Li717     H719    10.01   .     S
Li717     H720    10.01   .     S
He718     H720    9.995   .     S
Ti721     Er723    9.991   1_556     S
Ti721     H729    10.004   .     S
Ti721     Ti722    10.008   .     S
Ti721     Ti711    10.012   1_556     S
Ti722     Er724    9.991   .     S
Ti722     H730    10.004   .     S
Ti722     Ti1301    10.012   .     S
Er723     Ti721    9.991   1_554     S
Er723     Er724    9.991   1_554     S
Er723     He728    9.993   1_554     S
Er724     Er723    9.991   1_556     S
Er724     He725    9.993   .     S
He725     H730    9.995   .     S
He725     B726    9.994   .     S
B726     Li727    9.99   .     S
B726     He728    9.994   .     S
B726     Be837    9.997   .     S
Li727     H730    10.01   .     S
Li727     H729    10.01   .     S
Li727     Li737    10.012   .     S
He728     He398    10.002   1_556     S
He728     Er723    9.993   1_556     S
He728     H729    9.995   .     S
Ti731     Er734    9.991   .     S
Ti731     H740    10.004   .     S
Ti731     Ti732    10.008   .     S
Ti731     Ti1321    10.012   .     S
Ti732     Er733    9.991   .     S
Ti732     H739    10.004   .     S
Er733     Er734    9.991   .     S
Er733     He738    9.993   .     S
Er734     He735    9.993   .     S
He735     H740    9.995   .     S
He735     B736    9.994   .     S
B736     Li737    9.99   .     S
B736     He738    9.994   .     S
B736     Be838    9.997   .     S
Li737     H739    10.01   .     S
Li737     H740    10.01   .     S
He738     H739    9.995   .     S
Ti741     Er744    9.991   .     S
Ti741     H750    10.004   .     S
Ti741     Ti742    10.008   .     S
Ti741     Ti971    10.012   .     S
Ti742     Er743    9.991   1_655     S
Ti742     H749    10.004   .     S
Ti742     Ti612    10.012   1_655     S
Er743     Ti742    9.991   1_455     S
Er743     Er744    9.991   1_455     S
Er743     He748    9.993   1_455     S
Er743     Ce1567    10.004   .     S
Er744     Er743    9.991   1_655     S
Er744     He745    9.993   .     S
Er744     Ce1581    10.004   .     S
He745     H750    9.995   .     S
He745     B746    9.994   .     S
He745     He1518    10.002   .     S
B746     Li747    9.99   .     S
B746     He748    9.994   .     S
B746     Be842    9.997   .     S
Li747     H750    10.01   .     S
Li747     H749    10.01   .     S
Li747     Li827    10.012   .     S
He748     Er743    9.993   1_655     S
He748     H749    9.995   .     S
He748     He1445    10.002   1_655     S
Ti751     Er754    9.991   .     S
Ti751     H760    10.004   .     S
Ti751     Ti752    10.008   .     S
Ti751     Ti1261    10.012   .     S
Ti752     Er753    9.991   1_556     S
Ti752     H759    10.004   .     S
Ti752     Ti631    10.012   1_556     S
Er753     Ti752    9.991   1_554     S
Er753     Er754    9.991   1_554     S
Er753     He758    9.993   1_554     S
Er753     Ce1220    10.004   .     S
Er754     Er753    9.991   1_556     S
Er754     He755    9.993   .     S
Er754     Ce1245    10.004   .     S
He755     H760    9.995   .     S
He755     B756    9.994   .     S
He755     He1258    10.002   .     S
B756     Li757    9.99   .     S
B756     He758    9.994   .     S
B756     Be840    9.997   .     S
Li757     H760    10.01   .     S
Li757     H759    10.01   .     S
Li757     Li767    10.012   .     S
He758     Er753    9.993   1_556     S
He758     H759    9.995   .     S
He758     He1138    10.002   1_556     S
Ti761     Er763    9.991   .     S
Ti761     H769    10.004   .     S
Ti761     Ti762    10.008   .     S
Ti762     Er764    9.991   .     S
Ti762     H770    10.004   .     S
Ti762     Ti1272    10.012   .     S
Er763     Er764    9.991   .     S
Er763     He768    9.993   .     S
Er763     Ce1571    10.004   .     S
Er764     He765    9.993   .     S
Er764     Ce1564    10.004   .     S
He765     H770    9.995   .     S
He765     B766    9.994   .     S
He765     He1458    10.002   .     S
B766     Li767    9.99   .     S
B766     He768    9.994   .     S
B766     Be839    9.997   .     S
Li767     H770    10.01   .     S
Li767     H769    10.01   .     S
He768     H769    9.995   .     S
He768     He1448    10.002   .     S
Ti771     Er773    9.991   .     S
Ti771     H779    10.004   .     S
Ti771     Ti772    10.008   .     S
Ti772     Er774    9.991   .     S
Ti772     H780    10.004   .     S
Ti772     Ti952    10.012   .     S
Er773     Er774    9.991   .     S
Er773     He778    9.993   .     S
Er774     He775    9.993   .     S
He775     H780    9.995   .     S
He775     B776    9.994   .     S
B776     Li777    9.99   .     S
B776     He778    9.994   .     S
B776     Be834    9.997   .     S
Li777     H780    10.01   .     S
Li777     H779    10.01   .     S
Li777     Li787    10.012   .     S
He778     H779    9.995   .     S
H779     S1623    10.026   .     S
Ti781     Er784    9.991   .     S
Ti781     H790    10.004   .     S
Ti781     Ti782    10.008   .     S
Ti781     Ti931    10.012   .     S
Ti782     Er783    9.991   1_655     S
Ti782     H789    10.004   .     S
Ti782     Ti642    10.012   1_655     S
Er783     Ti782    9.991   1_455     S
Er783     Er784    9.991   1_455     S
Er783     He788    9.993   1_455     S
Er783     Ce1217    10.004   .     S
Er784     Er783    9.991   1_655     S
Er784     He785    9.993   .     S
Er784     Ce1232    10.004   .     S
He785     H790    9.995   .     S
He785     B786    9.994   .     S
He785     He1168    10.002   .     S
B786     Li787    9.99   .     S
B786     He788    9.994   .     S
B786     Be833    9.997   .     S
Li787     H790    10.01   .     S
Li787     H789    10.01   .     S
He788     Er783    9.993   1_655     S
He788     H789    9.995   .     S
He788     He1135    10.002   1_655     S
H790     S1625    10.026   .     S
Ti791     Er793    9.991   1_556     S
Ti791     H800    10.004   .     S
Ti791     Ti792    10.008   .     S
Ti791     Ti1002    10.012   1_556     S
Ti792     Er794    9.991   1_655     S
Ti792     H799    10.004   .     S
Ti792     Ti1431    10.012   1_655     S
Er793     Ti791    9.991   1_554     S
Er793     Er794    9.991   1_654     S
Er793     He795    9.993   1_554     S
Er793     Ce1236    10.004   .     S
Er794     Ti792    9.991   1_455     S
Er794     Er793    9.991   1_456     S
Er794     He798    9.993   1_455     S
Er794     Ce1241    10.004   .     S
He795     Er793    9.993   1_556     S
He795     H800    9.995   .     S
He795     B796    9.994   .     S
He795     He1165    10.002   1_556     S
B796     Li797    9.99   .     S
B796     He798    9.994   .     S
B796     Be836    9.997   .     S
Li797     H799    10.01   .     S
Li797     H800    10.01   .     S
Li797     Li807    10.012   .     S
He798     Er794    9.993   1_655     S
He798     H799    9.995   .     S
He798     He1255    10.002   1_655     S
Ti801     Er804    9.991   .     S
Ti801     H809    10.004   .     S
Ti801     Ti802    10.008   .     S
Ti801     Ti1332    10.012   .     S
Ti802     Er803    9.991   .     S
Ti802     H810    10.004   .     S
Ti802     Ti981    10.012   .     S
Er803     Er804    9.991   .     S
Er803     He805    9.993   .     S
Er804     He808    9.993   .     S
He805     H810    9.995   .     S
He805     B806    9.994   .     S
B806     Li807    9.99   .     S
B806     He808    9.994   .     S
B806     Be835    9.997   .     S
Li807     H809    10.01   .     S
Li807     H810    10.01   .     S
He808     H809    9.995   .     S
Ti811     Er813    9.991   1_556     S
Ti811     H819    10.004   .     S
Ti811     Ti812    10.008   .     S
Ti811     Ti1072    10.012   1_546     S
Ti812     Er814    9.991   .     S
Ti812     H820    10.004   .     S
Ti812     Ti1342    10.012   1_545     S
Er813     Ti811    9.991   1_554     S
Er813     Er814    9.991   1_554     S
Er813     He818    9.993   1_554     S
Er814     Er813    9.991   1_556     S
Er814     He815    9.993   .     S
He815     H820    9.995   .     S
He815     B816    9.994   .     S
B816     Li817    9.99   .     S
B816     He818    9.994   .     S
B816     Be831    9.997   .     S
Li817     H820    10.01   .     S
Li817     H819    10.01   .     S
Li817     Li897    10.012   .     S
He818     Er813    9.993   1_556     S
He818     H819    9.995   .     S
He818     He365    10.002   1_556     S
Ti821     Er823    9.991   .     S
Ti821     H830    10.004   .     S
Ti821     Ti822    10.008   .     S
Ti822     Er824    9.991   .     S
Ti822     H829    10.004   .     S
Ti822     Ti921    10.012   .     S
Er823     Er824    9.991   .     S
Er823     He828    9.993   .     S
Er824     He825    9.993   .     S
He825     H829    9.995   .     S
He825     B826    9.994   .     S
B826     Li827    9.99   .     S
B826     He828    9.994   .     S
B826     Be841    9.997   .     S
Li827     H829    10.01   .     S
Li827     H830    10.01   .     S
He828     H830    9.995   .     S
Be831     Ce888    9.993   .     S
Be831     Ce885    9.993   .     S
Be831     Be832    9.983   .     S
Be832     Ce884    9.993   .     S
Be832     Ce889    9.993   .     S
Be832     B896    9.997   .     S
Be833     Ce869    9.993   .     S
Be833     Ce873    9.993   .     S
Be833     Be834    9.983   .     S
Be834     Ce868    9.993   .     S
Be834     Ce872    9.993   .     S
Be835     Ce856    9.993   .     S
Be835     Ce860    9.993   .     S
Be835     Be836    9.983   .     S
Be836     Ce861    9.993   .     S
Be836     Ce857    9.993   .     S
Be837     Ce864    9.993   .     S
Be837     Ce879    9.993   .     S
Be837     Be838    9.983   .     S
Be838     Ce863    9.993   .     S
Be838     Ce880    9.993   .     S
Be839     Ce844    9.993   .     S
Be839     Ce849    9.993   .     S
Be839     Be840    9.983   .     S
Be840     Ce845    9.993   .     S
Be840     Ce848    9.993   .     S
Be841     Ce875    9.993   .     S
Be841     Ce851    9.993   .     S
Be841     Be842    9.983   .     S
Be842     Ce876    9.993   .     S
Be842     Ce852    9.993   .     S
V843     Ce845    9.993   1_655     S
V843     V850    9.993   .     S
V843     V846    9.993   .     S
V843     V871    9.993   .     S
Ce844     V846    9.993   1_455     S
Ce844     Er1454    10.004   .     S
Ce844     Ce845    9.985   .     S
Ce845     V843    9.993   1_455     S
Ce845     Er1134    10.004   .     S
V846     Ce844    9.993   1_655     S
V846     V847    9.993   .     S
V846     V887    9.993   .     S
V847     Ce849    9.993   1_655     S
V847     V850    9.993   .     S
V847     V853    9.993   .     S
Ce848     V850    9.993   1_455     S
Ce848     Er1254    10.004   .     S
Ce848     Ce849    9.985   .     S
Ce849     V847    9.993   1_455     S
Ce849     Er1444    10.004   .     S
V850     Ce848    9.993   1_655     S
V850     V855    9.993   .     S
Ce851     V854    9.993   .     S
Ce851     Ce852    9.985   .     S
Ce852     V853    9.993   .     S
Ce852     Er1443    10.004   .     S
V853     V877    9.993   .     S
V853     V854    9.993   .     S
V854     V858    9.993   .     S
V854     V878    9.993   .     S
V855     Ce857    9.993   .     S
V855     V859    9.993   .     S
V855     V858    9.993   .     S
Ce856     V858    9.993   .     S
Ce856     Ce857    9.985   .     S
Ce857     Er1253    10.004   .     S
V858     V862    9.993   .     S
V859     Ce861    9.993   .     S
V859     V862    9.993   .     S
V859     V870    9.993   .     S
Ce860     V862    9.993   .     S
Ce860     Ce861    9.985   .     S
Ce861     Er1163    10.004   .     S
V862     V866    9.993   .     S
Ce863     V866    9.993   .     S
Ce863     Ce864    9.985   .     S
Ce864     V865    9.993   .     S
V865     V882    9.993   .     S
V865     V866    9.993   .     S
V865     V867    9.993   .     S
V866     V881    9.993   .     S
V867     Ce868    9.993   1_556     S
V867     V874    9.993   .     S
V867     V870    9.993   .     S
Ce868     V867    9.993   1_554     S
Ce868     Ce869    9.985   .     S
Ce869     V870    9.993   1_554     S
Ce869     Er1164    10.004   .     S
V870     Ce869    9.993   1_556     S
V870     V871    9.993   .     S
V871     Ce873    9.993   1_556     S
V871     V874    9.993   .     S
Ce872     V874    9.993   1_554     S
Ce872     Ce873    9.985   .     S
Ce873     V871    9.993   1_554     S
Ce873     Er1133    10.004   .     S
V874     Ce872    9.993   1_556     S
V874     V890    9.993   .     S
Ce875     V878    9.993   .     S
Ce875     Ce876    9.985   .     S
Ce876     V877    9.993   .     S
Ce876     Er1514    10.004   .     S
V877     V878    9.993   .     S
V877     V886    9.993   .     S
V878     V881    9.993   .     S
Ce879     V882    9.993   .     S
Ce879     Ce880    9.985   .     S
Ce880     V881    9.993   .     S
V881     V882    9.993   .     S
V882     V883    9.993   .     S
V883     Ce885    9.993   .     S
V883     V890    9.993   .     S
V883     V886    9.993   .     S
Ce884     V886    9.993   .     S
Ce884     Er1513    10.004   .     S
Ce884     Ce885    9.985   .     S
V886     V887    9.993   .     S
V887     Ce889    9.993   .     S
V887     V890    9.993   .     S
Ce888     V890    9.993   .     S
Ce888     Ce889    9.985   .     S
Ce889     Er1453    10.004   .     S
Ti891     Er894    9.991   .     S
Ti891     H900    10.004   .     S
Ti891     Ti892    10.008   .     S
Ti891     Ti992    10.012   1_545     S
Ti892     Er893    9.991   1_655     S
Ti892     H899    10.004   .     S
Ti892     Ti1361    10.012   1_645     S
Er893     Ti892    9.991   1_455     S
Er893     Er894    9.991   1_455     S
Er893     He895    9.993   1_455     S
Er893     Ce1589    10.004   .     S
Er894     Er893    9.991   1_655     S
Er894     He898    9.993   .     S
Er894     Ce1596    10.004   .     S
He895     Er893    9.993   1_655     S
He895     H899    9.995   .     S
He895     B896    9.994   .     S
He895     He1455    10.002   1_655     S
B896     Li897    9.99   .     S
B896     He898    9.994   .     S
Li897     H900    10.01   .     S
Li897     H899    10.01   .     S
He898     H900    9.995   .     S
He898     He1515    10.002   .     S
Ti901     Er904    9.991   .     S
Ti901     H910    10.004   .     S
Ti901     Ti902    10.008   .     S
Ti901     Ti1311    10.012   .     S
Ti902     Er903    9.991   1_565     S
Ti902     H909    10.004   .     S
Ti902     Ti622    10.012   1_565     S
Er903     Ti902    9.991   1_545     S
Er903     Er904    9.991   1_545     S
Er903     He908    9.993   1_545     S
Er904     Er903    9.991   1_565     S
Er904     He905    9.993   .     S
He905     H910    9.995   .     S
He905     B906    9.994   .     S
B906     Li907    9.99   .     S
B906     He908    9.994   .     S
B906     Be1022    9.997   .     S
Li907     H910    10.01   .     S
Li907     H909    10.01   .     S
Li907     Li917    10.012   .     S
He908     Er903    9.993   1_565     S
He908     H909    9.995   .     S
He908     He435    10.002   1_565     S
Ti911     Er914    9.991   .     S
Ti911     H919    10.004   .     S
Ti911     Ti912    10.008   .     S
Ti911     Ti1282    10.012   .     S
Ti912     Er913    9.991   .     S
Ti912     H920    10.004   .     S
Er913     Er914    9.991   .     S
Er913     He918    9.993   .     S
Er914     He915    9.993   .     S
He915     H919    9.995   .     S
He915     B916    9.994   .     S
B916     Li917    9.99   .     S
B916     He918    9.994   .     S
B916     Be1021    9.997   .     S
Li917     H919    10.01   .     S
Li917     H920    10.01   .     S
He918     H920    9.995   .     S
Ti921     Er924    9.991   .     S
Ti921     H930    10.004   .     S
Ti921     Ti922    10.008   .     S
Ti922     Er923    9.991   .     S
Ti922     H929    10.004   .     S
Er923     Er924    9.991   .     S
Er923     He928    9.993   .     S
Er924     He925    9.993   .     S
He925     H930    9.995   .     S
He925     B926    9.994   .     S
B926     Li927    9.99   .     S
B926     He928    9.994   .     S
B926     Be1017    9.997   .     S
Li927     H929    10.01   .     S
Li927     H930    10.01   .     S
Li927     Li937    10.012   .     S
He928     H929    9.995   .     S
H929     S1632    10.026   .     S
Ti931     Er934    9.991   .     S
Ti931     H940    10.004   .     S
Ti931     Ti932    10.008   .     S
Ti932     Er933    9.991   1_655     S
Ti932     H939    10.004   .     S
Ti932     Ti641    10.012   1_655     S
Er933     Ti932    9.991   1_455     S
Er933     Er934    9.991   1_455     S
Er933     He938    9.993   1_455     S
Er933     Ce1208    10.004   .     S
Er934     Er933    9.991   1_655     S
Er934     He935    9.993   .     S
Er934     Ce1233    10.004   .     S
He935     H940    9.995   .     S
He935     B936    9.994   .     S
He935     He1175    10.002   .     S
B936     Li937    9.99   .     S
B936     He938    9.994   .     S
B936     Be1018    9.997   .     S
Li937     H940    10.01   .     S
Li937     H939    10.01   .     S
He938     Er933    9.993   1_655     S
He938     H939    9.995   .     S
He938     He1098    10.002   1_655     S
H940     S1628    10.026   .     S
Ti941     Er943    9.991   .     S
Ti941     H949    10.004   .     S
Ti941     Ti942    10.008   .     S
Ti942     Er944    9.991   .     S
Ti942     H950    10.004   .     S
Ti942     Ti1292    10.012   .     S
Er943     Er944    9.991   .     S
Er943     He948    9.993   .     S
Er943     Ce1203    10.004   .     S
Er944     He945    9.993   .     S
Er944     Ce1227    10.004   .     S
He945     H950    9.995   .     S
He945     B946    9.994   .     S
He945     He1088    10.002   .     S
B946     Li947    9.99   .     S
B946     He948    9.994   .     S
B946     Be1015    9.997   .     S
Li947     H949    10.01   .     S
Li947     H950    10.01   .     S
Li947     Li967    10.012   .     S
He948     H949    9.995   .     S
He948     He1095    10.002   .     S
Ti951     Er953    9.991   .     S
Ti951     H960    10.004   .     S
Ti951     Ti952    10.008   .     S
Ti952     Er954    9.991   .     S
Ti952     H959    10.004   .     S
Er953     Er954    9.991   .     S
Er953     He958    9.993   .     S
Er954     He955    9.993   .     S
He955     H959    9.995   .     S
He955     B956    9.994   .     S
B956     Li957    9.99   .     S
B956     He958    9.994   .     S
B956     Be1020    9.997   .     S
Li957     H960    10.01   .     S
Li957     H959    10.01   .     S
Li957     Li977    10.012   .     S
He958     H960    9.995   .     S
Ti961     Er964    9.991   .     S
Ti961     H970    10.004   .     S
Ti961     Ti962    10.008   .     S
Ti961     Ti1351    10.012   .     S
Ti962     Er963    9.991   1_565     S
Ti962     H969    10.004   .     S
Ti962     Ti602    10.012   1_565     S
Er963     Ti962    9.991   1_545     S
Er963     Er964    9.991   1_545     S
Er963     He968    9.993   1_545     S
Er963     Ce1605    10.004   .     S
Er964     Er963    9.991   1_565     S
Er964     He965    9.993   .     S
Er964     Ce1592    10.004   .     S
He965     H970    9.995   .     S
He965     B966    9.994   .     S
He965     He1548    10.002   .     S
B966     Li967    9.99   .     S
B966     He968    9.994   .     S
B966     Be1016    9.997   .     S
Li967     H970    10.01   .     S
Li967     H969    10.01   .     S
He968     Er963    9.993   1_565     S
He968     H969    9.995   .     S
He968     He1465    10.002   1_565     S
Ti971     Er974    9.991   .     S
Ti971     H980    10.004   .     S
Ti971     Ti972    10.008   .     S
Ti972     Er973    9.991   1_655     S
Ti972     H979    10.004   .     S
Ti972     Ti611    10.012   1_655     S
Er973     Ti972    9.991   1_455     S
Er973     Er974    9.991   1_455     S
Er973     He978    9.993   1_455     S
Er973     Ce1608    10.004   .     S
Er974     Er973    9.991   1_655     S
Er974     He975    9.993   .     S
Er974     Ce1580    10.004   .     S
He975     H980    9.995   .     S
He975     B976    9.994   .     S
He975     He1535    10.002   .     S
B976     Li977    9.99   .     S
B976     He978    9.994   .     S
B976     Be1019    9.997   .     S
Li977     H980    10.01   .     S
Li977     H979    10.01   .     S
He978     Er973    9.993   1_655     S
He978     H979    9.995   .     S
He978     He1468    10.002   1_655     S
Ti981     Er984    9.991   .     S
Ti981     H989    10.004   .     S
Ti981     Ti982    10.008   .     S
Ti982     Er983    9.991   .     S
Ti982     H990    10.004   .     S
Ti982     Ti1331    10.012   .     S
Er983     Er984    9.991   .     S
Er983     He985    9.993   .     S
Er984     He988    9.993   .     S
He985     H990    9.995   .     S
He985     B986    9.994   .     S
B986     Li987    9.99   .     S
B986     He988    9.994   .     S
B986     Be1011    9.997   .     S
Li987     H989    10.01   .     S
Li987     H990    10.01   .     S
Li987     Li997    10.012   .     S
He988     H989    9.995   .     S
Ti991     Er993    9.991   1_655     S
Ti991     H1000    10.004   .     S
Ti991     Ti992    10.008   .     S
Ti991     Ti1362    10.012   1_655     S
Ti992     Er994    9.991   1_565     S
Ti992     H999    10.004   .     S
Ti992     Ti891    10.012   1_565     S
Er993     Ti991    9.991   1_455     S
Er993     Er994    9.991   1_465     S
Er993     He995    9.993   1_455     S
Er993     Ce1600    10.004   .     S
Er994     Ti992    9.991   1_545     S
Er994     Er993    9.991   1_645     S
Er994     He998    9.993   1_545     S
Er994     Ce1597    10.004   .     S
He995     Er993    9.993   1_655     S
He995     H1000    9.995   .     S
He995     B996    9.994   .     S
He995     He1545    10.002   1_655     S
B996     Li997    9.99   .     S
B996     He998    9.994   .     S
B996     Be1012    9.997   .     S
Li997     H999    10.01   .     S
Li997     H1000    10.01   .     S
He998     Er994    9.993   1_565     S
He998     H999    9.995   .     S
He998     He1538    10.002   1_565     S
Ti1001     Er1003    9.991   1_655     S
Ti1001     H1009    10.004   .     S
Ti1001     Ti1002    10.008   .     S
Ti1001     Ti1432    10.012   1_654     S
Ti1002     Er1004    9.991   .     S
Ti1002     H1010    10.004   .     S
Ti1002     Ti791    10.012   1_554     S
Er1003     Ti1001    9.991   1_455     S
Er1003     Er1004    9.991   1_455     S
Er1003     He1008    9.993   1_455     S
Er1003     Ce1223    10.004   .     S
Er1004     Er1003    9.991   1_655     S
Er1004     He1005    9.993   .     S
Er1004     Ce1237    10.004   .     S
He1005     H1010    9.995   .     S
He1005     B1006    9.994   .     S
He1005     He1178    10.002   .     S
B1006     Li1007    9.99   .     S
B1006     He1008    9.994   .     S
B1006     Be1013    9.997   .     S
Li1007     H1010    10.01   .     S
Li1007     H1009    10.01   .     S
Li1007     Li1077    10.012   .     S
He1008     Er1003    9.993   1_655     S
He1008     H1009    9.995   .     S
He1008     He1085    10.002   1_655     S
Be1011     Ce1028    9.993   .     S
Be1011     Ce1024    9.993   .     S
Be1011     Be1012    9.983   .     S
Be1012     Ce1029    9.993   .     S
Be1012     Ce1025    9.993   .     S
Be1013     Ce1061    9.993   .     S
Be1013     Ce1057    9.993   .     S
Be1013     Be1014    9.983   .     S
Be1014     Ce1056    9.993   .     S
Be1014     Ce1060    9.993   .     S
Be1014     B1076    9.997   .     S
Be1015     Ce1032    9.993   .     S
Be1015     Ce1040    9.993   .     S
Be1015     Be1016    9.983   .     S
Be1016     Ce1031    9.993   .     S
Be1016     Ce1041    9.993   .     S
Be1017     Ce1035    9.993   .     S
Be1017     Ce1052    9.993   .     S
Be1017     Be1018    9.983   .     S
Be1018     Ce1051    9.993   .     S
Be1018     Ce1036    9.993   .     S
Be1019     Ce1048    9.993   .     S
Be1019     Ce1065    9.993   .     S
Be1019     Be1020    9.983   .     S
Be1020     Ce1064    9.993   .     S
Be1020     Ce1049    9.993   .     S
Be1021     Ce1067    9.993   .     S
Be1021     Ce1043    9.993   .     S
Be1021     Be1022    9.983   .     S
Be1022     Ce1068    9.993   .     S
Be1022     Ce1044    9.993   .     S
V1023     Ce1025    9.993   .     S
V1023     V1027    9.993   .     S
V1023     V1026    9.993   .     S
V1023     V1034    9.993   .     S
Ce1024     V1026    9.993   .     S
Ce1024     Ce1025    9.985   .     S
Ce1025     Er1543    10.004   .     S
V1026     V1030    9.993   .     S
V1026     V1038    9.993   .     S
V1027     Ce1029    9.993   .     S
V1027     V1030    9.993   .     S
V1027     V1050    9.993   .     S
Ce1028     V1030    9.993   .     S
Ce1028     Ce1029    9.985   .     S
Ce1029     Er1533    10.004   .     S
V1030     V1045    9.993   .     S
Ce1031     V1034    9.993   1_455     S
Ce1031     Er1544    10.004   .     S
Ce1031     Ce1032    9.985   .     S
Ce1032     V1033    9.993   1_455     S
Ce1032     Er1093    10.004   .     S
V1033     Ce1032    9.993   1_655     S
V1033     V1042    9.993   .     S
V1033     V1034    9.993   .     S
V1033     V1037    9.993   .     S
V1034     Ce1031    9.993   1_655     S
V1034     V1039    9.993   .     S
Ce1035     V1038    9.993   .     S
Ce1035     Ce1036    9.985   .     S
Ce1036     V1037    9.993   .     S
Ce1036     Er1094    10.004   .     S
V1037     V1054    9.993   .     S
V1037     V1038    9.993   .     S
V1038     V1053    9.993   .     S
V1039     Ce1041    9.993   1_655     S
V1039     V1042    9.993   .     S
V1039     V1066    9.993   .     S
Ce1040     V1042    9.993   1_455     S
Ce1040     Er1084    10.004   .     S
Ce1040     Ce1041    9.985   .     S
Ce1041     V1039    9.993   1_455     S
Ce1041     Er1463    10.004   .     S
V1042     Ce1040    9.993   1_655     S
V1042     V1062    9.993   .     S
Ce1043     V1045    9.993   .     S
Ce1043     Ce1044    9.985   .     S
Ce1044     V1046    9.993   .     S
V1045     V1046    9.993   .     S
V1045     V1070    9.993   .     S
V1046     V1069    9.993   .     S
V1046     V1047    9.993   .     S
V1047     Ce1049    9.993   1_565     S
V1047     V1050    9.993   .     S
V1047     V1063    9.993   .     S
Ce1048     V1050    9.993   1_545     S
Ce1048     Er1534    10.004   .     S
Ce1048     Ce1049    9.985   .     S
Ce1049     V1047    9.993   1_545     S
V1050     Ce1048    9.993   1_565     S
V1050     V1066    9.993   .     S
Ce1051     V1054    9.993   .     S
Ce1051     Er1173    10.004   .     S
Ce1051     Ce1052    9.985   .     S
Ce1052     V1053    9.993   .     S
V1053     V1054    9.993   .     S
V1053     V1070    9.993   .     S
V1054     V1055    9.993   .     S
V1055     Ce1057    9.993   .     S
V1055     V1062    9.993   .     S
V1055     V1058    9.993   .     S
Ce1056     V1058    9.993   .     S
Ce1056     Ce1057    9.985   .     S
Ce1057     Er1174    10.004   .     S
V1058     V1059    9.993   .     S
V1058     V1069    9.993   .     S
V1059     Ce1060    9.993   .     S
V1059     V1063    9.993   .     S
V1059     V1062    9.993   .     S
Ce1060     Ce1061    9.985   .     S
Ce1061     V1062    9.993   .     S
Ce1061     Er1083    10.004   .     S
V1063     Ce1064    9.993   1_565     S
V1063     V1066    9.993   .     S
Ce1064     V1063    9.993   1_545     S
Ce1064     Ce1065    9.985   .     S
Ce1065     V1066    9.993   1_545     S
Ce1065     Er1464    10.004   .     S
V1066     Ce1065    9.993   1_565     S
Ce1067     V1070    9.993   .     S
Ce1067     Ce1068    9.985   .     S
Ce1068     V1069    9.993   .     S
V1069     V1070    9.993   .     S
Ti1071     Er1074    9.991   .     S
Ti1071     H1080    10.004   .     S
Ti1071     Ti1072    10.008   .     S
Ti1071     Ti1341    10.012   1_554     S
Ti1072     Er1073    9.991   1_565     S
Ti1072     H1079    10.004   .     S
Ti1072     Ti811    10.012   1_564     S
Er1073     Ti1072    9.991   1_545     S
Er1073     Er1074    9.991   1_545     S
Er1073     He1075    9.993   1_545     S
Er1074     Er1073    9.991   1_565     S
Er1074     He1078    9.993   .     S
He1075     Er1073    9.993   1_565     S
He1075     H1079    9.995   .     S
He1075     B1076    9.994   .     S
He1075     He388    10.002   1_565     S
B1076     Li1077    9.99   .     S
B1076     He1078    9.994   .     S
Li1077     H1080    10.01   .     S
Li1077     H1079    10.01   .     S
He1078     H1080    9.995   .     S
Ti1081     Er1084    9.991   .     S
Ti1081     H1090    10.004   .     S
Ti1081     Ti1082    10.008   .     S
Ti1081     Ti1461    10.012   1_565     S
Ti1082     Er1083    9.991   1_455     S
Ti1082     H1089    10.004   .     S
Ti1082     Ti381    10.012   1_465     S
Er1083     Ti1082    9.991   1_655     S
Er1083     Er1084    9.991   1_655     S
Er1083     He1085    9.993   1_655     S
Er1084     Er1083    9.991   1_455     S
Er1084     He1088    9.993   .     S
He1085     Er1083    9.993   1_455     S
He1085     H1089    9.995   .     S
He1085     B1086    9.994   .     S
He1085     He1008    10.002   1_455     S
B1086     Li1087    9.99   .     S
B1086     He1088    9.994   .     S
B1086     Be1196    9.997   .     S
Li1087     H1090    10.01   .     S
Li1087     H1089    10.01   .     S
Li1087     Li1107    10.012   .     S
He1088     H1090    9.995   .     S
Ti1091     Er1093    9.991   .     S
Ti1091     H1099    10.004   .     S
Ti1091     Ti1092    10.008   .     S
Ti1091     Ti1541    10.012   .     S
Ti1092     Er1094    9.991   1_455     S
Ti1092     H1100    10.004   .     S
Ti1092     Ti222    10.012   1_455     S
Er1093     Er1094    9.991   1_455     S
Er1093     He1095    9.993   .     S
Er1094     Ti1092    9.991   1_655     S
Er1094     Er1093    9.991   1_655     S
Er1094     He1098    9.993   1_655     S
He1095     H1099    9.995   .     S
He1095     B1096    9.994   .     S
B1096     Li1097    9.99   .     S
B1096     He1098    9.994   .     S
B1096     Be1199    9.997   .     S
Li1097     H1100    10.01   .     S
Li1097     H1099    10.01   .     S
Li1097     Li1147    10.012   .     S
He1098     Er1094    9.993   1_455     S
He1098     H1100    9.995   .     S
He1098     He938    10.002   1_455     S
Ti1101     Er1104    9.991   .     S
Ti1101     H1109    10.004   .     S
Ti1101     Ti1102    10.008   .     S
Ti1101     Ti402    10.012   1_565     S
Ti1102     Er1103    9.991   1_554     S
Ti1102     H1110    10.004   .     S
Ti1102     Ti1612    10.012   1_564     S
Er1103     Ti1102    9.991   1_556     S
Er1103     Er1104    9.991   1_556     S
Er1103     He1105    9.993   1_556     S
Er1103     Ce1420    10.004   .     S
Er1104     Er1103    9.991   1_554     S
Er1104     He1108    9.993   .     S
Er1104     Ce1416    10.004   .     S
He1105     Er1103    9.993   1_554     S
He1105     H1110    9.995   .     S
He1105     B1106    9.994   .     S
He1105     He1435    10.002   1_554     S
B1106     Li1107    9.99   .     S
B1106     He1108    9.994   .     S
B1106     Be1195    9.997   .     S
Li1107     H1110    10.01   .     S
Li1107     H1109    10.01   .     S
He1108     H1109    9.995   .     S
He1108     He1295    10.002   .     S
Ti1111     Er1113    9.991   .     S
Ti1111     H1120    10.004   .     S
Ti1111     Ti1112    10.008   .     S
Ti1112     Er1114    9.991   .     S
Ti1112     H1119    10.004   .     S
Er1113     Er1114    9.991   .     S
Er1113     He1118    9.993   .     S
Er1114     He1115    9.993   .     S
He1115     H1119    9.995   .     S
He1115     B1116    9.994   .     S
B1116     Li1117    9.99   .     S
B1116     He1118    9.994   .     S
B1116     Be1197    9.997   .     S
Li1117     H1119    10.01   .     S
Li1117     H1120    10.01   .     S
Li1117     Li1127    10.012   .     S
He1118     H1120    9.995   .     S
Ti1121     Er1123    9.991   .     S
Ti1121     H1130    10.004   .     S
Ti1121     Ti1122    10.008   .     S
Ti1122     Er1124    9.991   1_554     S
Ti1122     H1129    10.004   .     S
Ti1122     Ti201    10.012   1_554     S
Er1123     Er1124    9.991   1_554     S
Er1123     He1128    9.993   .     S
Er1123     Ce1397    10.004   .     S
Er1124     Ti1122    9.991   1_556     S
Er1124     Er1123    9.991   1_556     S
Er1124     He1125    9.993   1_556     S
Er1124     Ce1392    10.004   .     S
He1125     Er1124    9.993   1_554     S
He1125     H1129    9.995   .     S
He1125     B1126    9.994   .     S
He1125     He1268    10.002   1_554     S
B1126     Li1127    9.99   .     S
B1126     He1128    9.994   .     S
B1126     Be1198    9.997   .     S
Li1127     H1129    10.01   .     S
Li1127     H1130    10.01   .     S
He1128     H1130    9.995   .     S
He1128     He1298    10.002   .     S
Ti1131     Er1133    9.991   1_455     S
Ti1131     H1140    10.004   .     S
Ti1131     Ti1132    10.008   .     S
Ti1131     Ti361    10.012   1_455     S
Ti1132     Er1134    9.991   1_554     S
Ti1132     H1139    10.004   .     S
Ti1132     Ti1451    10.012   1_554     S
Er1133     Ti1131    9.991   1_655     S
Er1133     Er1134    9.991   1_654     S
Er1133     He1135    9.993   1_655     S
Er1134     Ti1132    9.991   1_556     S
Er1134     Er1133    9.991   1_456     S
Er1134     He1138    9.993   1_556     S
He1135     Er1133    9.993   1_455     S
He1135     H1140    9.995   .     S
He1135     B1136    9.994   .     S
He1135     He788    10.002   1_455     S
B1136     Li1137    9.99   .     S
B1136     He1138    9.994   .     S
B1136     Be1201    9.997   .     S
Li1137     H1139    10.01   .     S
Li1137     H1140    10.01   .     S
Li1137     Li1157    10.012   .     S
He1138     Er1134    9.993   1_554     S
He1138     H1139    9.995   .     S
He1138     He758    10.002   1_554     S
Ti1141     Er1144    9.991   .     S
Ti1141     H1149    10.004   .     S
Ti1141     Ti1142    10.008   .     S
Ti1141     Ti1481    10.012   .     S
Ti1142     Er1143    9.991   .     S
Ti1142     H1150    10.004   .     S
Er1143     Er1144    9.991   .     S
Er1143     He1145    9.993   .     S
Er1144     He1148    9.993   .     S
He1145     H1150    9.995   .     S
He1145     B1146    9.994   .     S
B1146     Li1147    9.99   .     S
B1146     He1148    9.994   .     S
B1146     Be1200    9.997   .     S
Li1147     H1149    10.01   .     S
Li1147     H1150    10.01   .     S
He1148     H1149    9.995   .     S
Ti1151     Er1153    9.991   .     S
Ti1151     H1160    10.004   .     S
Ti1151     Ti1152    10.008   .     S
Ti1152     Er1154    9.991   .     S
Ti1152     H1159    10.004   .     S
Ti1152     Ti1471    10.012   .     S
Er1153     Er1154    9.991   .     S
Er1153     He1158    9.993   .     S
Er1154     He1155    9.993   .     S
He1155     H1159    9.995   .     S
He1155     B1156    9.994   .     S
B1156     Li1157    9.99   .     S
B1156     He1158    9.994   .     S
B1156     Be1202    9.997   .     S
Li1157     H1159    10.01   .     S
Li1157     H1160    10.01   .     S
He1158     H1160    9.995   .     S
Ti1161     Er1164    9.991   .     S
Ti1161     H1169    10.004   .     S
Ti1161     Ti1162    10.008   .     S
Ti1162     Er1163    9.991   1_554     S
Ti1162     H1170    10.004   .     S
Ti1162     Ti281    10.012   1_554     S
Er1163     Ti1162    9.991   1_556     S
Er1163     Er1164    9.991   1_556     S
Er1163     He1165    9.993   1_556     S
Er1164     Er1163    9.991   1_554     S
Er1164     He1168    9.993   .     S
He1165     Er1163    9.993   1_554     S
He1165     H1170    9.995   .     S
He1165     B1166    9.994   .     S
He1165     He795    10.002   1_554     S
B1166     Li1167    9.99   .     S
B1166     He1168    9.994   .     S
B1166     Be1191    9.997   .     S
Li1167     H1170    10.01   .     S
Li1167     H1169    10.01   .     S
Li1167     Li1177    10.012   .     S
He1168     H1169    9.995   .     S
H1169     S1626    10.026   .     S
Ti1171     Er1174    9.991   .     S
Ti1171     H1179    10.004   .     S
Ti1171     Ti1172    10.008   .     S
Ti1172     Er1173    9.991   .     S
Ti1172     H1180    10.004   .     S
Er1173     Er1174    9.991   .     S
Er1173     He1175    9.993   .     S
Er1174     He1178    9.993   .     S
He1175     H1180    9.995   .     S
He1175     B1176    9.994   .     S
B1176     Li1177    9.99   .     S
B1176     He1178    9.994   .     S
B1176     Be1192    9.997   .     S
Li1177     H1180    10.01   .     S
Li1177     H1179    10.01   .     S
He1178     H1179    9.995   .     S
H1180     S1627    10.026   .     S
Ti1181     Er1183    9.991   .     S
Ti1181     H1189    10.004   .     S
Ti1181     Ti1182    10.008   .     S
Ti1181     Ti1521    10.012   .     S
Ti1182     Er1184    9.991   .     S
Ti1182     H1190    10.004   .     S
Er1183     Er1184    9.991   .     S
Er1183     He1188    9.993   .     S
Er1183     Ce1424    10.004   .     S
Er1184     He1185    9.993   .     S
Er1184     Ce1411    10.004   .     S
He1185     H1190    9.995   .     S
He1185     B1186    9.994   .     S
He1185     He1265    10.002   .     S
B1186     Li1187    9.99   .     S
B1186     He1188    9.994   .     S
B1186     Be1193    9.997   .     S
Li1187     H1190    10.01   .     S
Li1187     H1189    10.01   .     S
Li1187     Li1257    10.012   .     S
He1188     H1189    9.995   .     S
He1188     He1438    10.002   .     S
Be1191     Ce1236    9.993   .     S
Be1191     Ce1232    9.993   .     S
Be1191     Be1192    9.983   .     S
Be1192     Ce1233    9.993   .     S
Be1192     Ce1237    9.993   .     S
Be1193     Ce1244    9.993   .     S
Be1193     Ce1240    9.993   .     S
Be1193     Be1194    9.983   .     S
Be1194     Ce1241    9.993   .     S
Be1194     Ce1245    9.993   .     S
Be1194     B1256    9.997   .     S
Be1195     Ce1224    9.993   .     S
Be1195     Ce1228    9.993   .     S
Be1195     Be1196    9.983   .     S
Be1196     Ce1223    9.993   .     S
Be1196     Ce1227    9.993   .     S
Be1197     Ce1211    9.993   .     S
Be1197     Ce1248    9.993   .     S
Be1197     Be1198    9.983   .     S
Be1198     Ce1247    9.993   .     S
Be1198     Ce1212    9.993   .     S
Be1199     Ce1208    9.993   .     S
Be1199     Ce1203    9.993   .     S
Be1199     Be1200    9.983   .     S
Be1200     Ce1204    9.993   .     S
Be1200     Ce1207    9.993   .     S
Be1201     Ce1220    9.993   .     S
Be1201     Ce1217    9.993   .     S
Be1201     Be1202    9.983   .     S
Be1202     Ce1216    9.993   .     S
Be1202     Ce1221    9.993   .     S
Ce1203     V1205    9.993   .     S
Ce1203     Ce1204    9.985   .     S
Ce1204     V1206    9.993   .     S
V1205     V1206    9.993   .     S
V1205     V1210    9.993   .     S
V1205     V1229    9.993   .     S
V1206     V1209    9.993   .     S
V1206     V1249    9.993   .     S
Ce1207     V1209    9.993   .     S
Ce1207     Ce1208    9.985   .     S
Ce1208     V1210    9.993   .     S
V1209     V1210    9.993   .     S
V1209     V1215    9.993   .     S
V1210     V1234    9.993   .     S
Ce1211     V1214    9.993   .     S
Ce1211     Ce1212    9.985   .     S
Ce1212     V1213    9.993   .     S
Ce1212     Er1263    10.004   .     S
V1213     V1214    9.993   .     S
V1213     V1246    9.993   .     S
V1213     V1250    9.993   .     S
V1214     V1249    9.993   .     S
V1214     V1219    9.993   .     S
V1215     Ce1216    9.993   .     S
V1215     V1219    9.993   .     S
V1215     V1218    9.993   .     S
Ce1216     Ce1217    9.985   .     S
Ce1217     V1218    9.993   .     S
V1218     V1231    9.993   .     S
V1218     V1222    9.993   .     S
V1219     Ce1221    9.993   .     S
V1219     V1222    9.993   .     S
Ce1220     V1222    9.993   .     S
Ce1220     Ce1221    9.985   .     S
V1222     V1243    9.993   .     S
Ce1223     V1225    9.993   .     S
Ce1223     Ce1224    9.985   .     S
Ce1224     V1226    9.993   .     S
Ce1224     Er1433    10.004   .     S
V1225     V1235    9.993   .     S
V1225     V1229    9.993   .     S
V1225     V1226    9.993   .     S
V1226     V1242    9.993   .     S
V1226     V1230    9.993   .     S
Ce1227     V1229    9.993   .     S
Ce1227     Ce1228    9.985   .     S
Ce1228     V1230    9.993   .     S
Ce1228     Er1294    10.004   .     S
V1229     V1230    9.993   .     S
V1230     V1250    9.993   .     S
V1231     Ce1232    9.993   1_455     S
V1231     V1234    9.993   .     S
V1231     V1238    9.993   .     S
Ce1232     V1231    9.993   1_655     S
Ce1232     Ce1233    9.985   .     S
Ce1233     V1234    9.993   1_655     S
V1234     Ce1233    9.993   1_455     S
V1234     V1235    9.993   .     S
V1235     Ce1237    9.993   1_455     S
V1235     V1238    9.993   .     S
Ce1236     V1238    9.993   1_655     S
Ce1236     Ce1237    9.985   .     S
Ce1237     V1235    9.993   1_655     S
V1238     Ce1236    9.993   1_455     S
V1238     V1239    9.993   .     S
V1239     Ce1241    9.993   1_554     S
V1239     V1242    9.993   .     S
V1239     V1243    9.993   .     S
Ce1240     V1242    9.993   1_556     S
Ce1240     Er1434    10.004   .     S
Ce1240     Ce1241    9.985   .     S
Ce1241     V1239    9.993   1_556     S
V1242     Ce1240    9.993   1_554     S
V1242     V1246    9.993   .     S
V1243     Ce1245    9.993   1_554     S
V1243     V1246    9.993   .     S
Ce1244     V1246    9.993   1_556     S
Ce1244     Er1264    10.004   .     S
Ce1244     Ce1245    9.985   .     S
Ce1245     V1243    9.993   1_556     S
V1246     Ce1244    9.993   1_554     S
Ce1247     V1250    9.993   .     S
Ce1247     Er1293    10.004   .     S
Ce1247     Ce1248    9.985   .     S
Ce1248     V1249    9.993   .     S
V1249     V1250    9.993   .     S
Ti1251     Er1254    9.991   .     S
Ti1251     H1259    10.004   .     S
Ti1251     Ti1252    10.008   .     S
Ti1251     Ti1441    10.012   .     S
Ti1252     Er1253    9.991   1_455     S
Ti1252     H1260    10.004   .     S
Ti1252     Ti212    10.012   1_455     S
Er1253     Ti1252    9.991   1_655     S
Er1253     Er1254    9.991   1_655     S
Er1253     He1255    9.993   1_655     S
Er1254     Er1253    9.991   1_455     S
Er1254     He1258    9.993   .     S
He1255     Er1253    9.993   1_455     S
He1255     H1260    9.995   .     S
He1255     B1256    9.994   .     S
He1255     He798    10.002   1_455     S
B1256     Li1257    9.99   .     S
B1256     He1258    9.994   .     S
Li1257     H1260    10.01   .     S
Li1257     H1259    10.01   .     S
He1258     H1259    9.995   .     S
Ti1261     Er1264    9.991   .     S
Ti1261     H1270    10.004   .     S
Ti1261     Ti1262    10.008   .     S
Ti1262     Er1263    9.991   1_556     S
Ti1262     H1269    10.004   .     S
Ti1262     Ti632    10.012   1_556     S
Er1263     Ti1262    9.991   1_554     S
Er1263     Er1264    9.991   1_554     S
Er1263     He1268    9.993   1_554     S
Er1264     Er1263    9.991   1_556     S
Er1264     He1265    9.993   .     S
He1265     H1270    9.995   .     S
He1265     B1266    9.994   .     S
B1266     Li1267    9.99   .     S
B1266     He1268    9.994   .     S
B1266     Be1381    9.997   .     S
Li1267     H1270    10.01   .     S
Li1267     H1269    10.01   .     S
Li1267     Li1327    10.012   .     S
He1268     Er1263    9.993   1_556     S
He1268     H1269    9.995   .     S
He1268     He1125    10.002   1_556     S
Ti1271     Er1273    9.991   .     S
Ti1271     H1279    10.004   .     S
Ti1271     Ti1272    10.008   .     S
Ti1272     Er1274    9.991   .     S
Ti1272     H1280    10.004   .     S
Er1273     Er1274    9.991   .     S
Er1273     He1278    9.993   .     S
Er1273     Ce1575    10.004   .     S
Er1274     He1275    9.993   .     S
Er1274     Ce1563    10.004   .     S
He1275     H1280    9.995   .     S
He1275     B1276    9.994   .     S
He1275     He1615    10.002   .     S
B1276     Li1277    9.99   .     S
B1276     He1278    9.994   .     S
B1276     Be1375    9.997   .     S
Li1277     H1279    10.01   .     S
Li1277     H1280    10.01   .     S
Li1277     Li1307    10.012   .     S
He1278     H1279    9.995   .     S
He1278     He1505    10.002   .     S
Ti1281     Er1283    9.991   .     S
Ti1281     H1289    10.004   .     S
Ti1281     Ti1282    10.008   .     S
Ti1282     Er1284    9.991   .     S
Ti1282     H1290    10.004   .     S
Er1283     Er1284    9.991   .     S
Er1283     He1288    9.993   .     S
Er1284     He1285    9.993   .     S
He1285     H1290    9.995   .     S
He1285     B1286    9.994   .     S
B1286     Li1287    9.99   .     S
B1286     He1288    9.994   .     S
B1286     Be1377    9.997   .     S
Li1287     H1290    10.01   .     S
Li1287     H1289    10.01   .     S
Li1287     Li1357    10.012   .     S
He1288     H1289    9.995   .     S
Ti1291     Er1293    9.991   .     S
Ti1291     H1300    10.004   .     S
Ti1291     Ti1292    10.008   .     S
Ti1292     Er1294    9.991   .     S
Ti1292     H1299    10.004   .     S
Er1293     Er1294    9.991   .     S
Er1293     He1298    9.993   .     S
Er1294     He1295    9.993   .     S
He1295     H1299    9.995   .     S
He1295     B1296    9.994   .     S
B1296     Li1297    9.99   .     S
B1296     He1298    9.994   .     S
B1296     Be1380    9.997   .     S
Li1297     H1300    10.01   .     S
Li1297     H1299    10.01   .     S
Li1297     Li1317    10.012   .     S
He1298     H1300    9.995   .     S
Ti1301     Er1304    9.991   .     S
Ti1301     H1310    10.004   .     S
Ti1301     Ti1302    10.008   .     S
Ti1302     Er1303    9.991   1_556     S
Ti1302     H1309    10.004   .     S
Ti1302     Ti712    10.012   1_556     S
Er1303     Ti1302    9.991   1_554     S
Er1303     Er1304    9.991   1_554     S
Er1303     He1308    9.993   1_554     S
Er1304     Er1303    9.991   1_556     S
Er1304     He1305    9.993   .     S
He1305     H1310    9.995   .     S
He1305     B1306    9.994   .     S
B1306     Li1307    9.99   .     S
B1306     He1308    9.994   .     S
B1306     Be1376    9.997   .     S
Li1307     H1310    10.01   .     S
Li1307     H1309    10.01   .     S
He1308     He405    10.002   1_556     S
He1308     Er1303    9.993   1_556     S
He1308     H1309    9.995   .     S
Ti1311     Er1314    9.991   .     S
Ti1311     H1320    10.004   .     S
Ti1311     Ti1312    10.008   .     S
Ti1312     Er1313    9.991   1_565     S
Ti1312     H1319    10.004   .     S
Ti1312     Ti621    10.012   1_565     S
Er1313     Ti1312    9.991   1_545     S
Er1313     Er1314    9.991   1_545     S
Er1313     He1318    9.993   1_545     S
Er1314     Er1313    9.991   1_565     S
Er1314     He1315    9.993   .     S
He1315     H1320    9.995   .     S
He1315     B1316    9.994   .     S
B1316     Li1317    9.99   .     S
B1316     He1318    9.994   .     S
B1316     Be1379    9.997   .     S
Li1317     H1320    10.01   .     S
Li1317     H1319    10.01   .     S
He1318     He408    10.002   1_565     S
He1318     Er1313    9.993   1_565     S
He1318     H1319    9.995   .     S
Ti1321     Er1324    9.991   .     S
Ti1321     H1329    10.004   .     S
Ti1321     Ti1322    10.008   .     S
Ti1322     Er1323    9.991   .     S
Ti1322     H1330    10.004   .     S
Er1323     Er1324    9.991   .     S
Er1323     He1328    9.993   .     S
Er1324     He1325    9.993   .     S
He1325     H1329    9.995   .     S
He1325     B1326    9.994   .     S
B1326     Li1327    9.99   .     S
B1326     He1328    9.994   .     S
B1326     Be1382    9.997   .     S
Li1327     H1330    10.01   .     S
Li1327     H1329    10.01   .     S
He1328     H1330    9.995   .     S
Ti1331     Er1333    9.991   .     S
Ti1331     H1339    10.004   .     S
Ti1331     Ti1332    10.008   .     S
Ti1332     Er1334    9.991   .     S
Ti1332     H1340    10.004   .     S
Er1333     Er1334    9.991   .     S
Er1333     He1335    9.993   .     S
Er1334     He1338    9.993   .     S
He1335     H1339    9.995   .     S
He1335     B1336    9.994   .     S
B1336     Li1337    9.99   .     S
B1336     He1338    9.994   .     S
B1336     Be1371    9.997   .     S
Li1337     H1340    10.01   .     S
Li1337     H1339    10.01   .     S
Li1337     Li1347    10.012   .     S
He1338     H1340    9.995   .     S
Ti1341     Er1343    9.991   1_556     S
Ti1341     H1350    10.004   .     S
Ti1341     Ti1342    10.008   .     S
Ti1341     Ti1071    10.012   1_556     S
Ti1342     Er1344    9.991   1_565     S
Ti1342     H1349    10.004   .     S
Ti1342     Ti812    10.012   1_565     S
Er1343     Ti1341    9.991   1_554     S
Er1343     Er1344    9.991   1_564     S
Er1343     He1345    9.993   1_554     S
Er1344     Ti1342    9.991   1_545     S
Er1344     Er1343    9.991   1_546     S
Er1344     He1348    9.993   1_545     S
He1345     He465    10.002   1_556     S
He1345     Er1343    9.993   1_556     S
He1345     H1350    9.995   .     S
He1345     B1346    9.994   .     S
B1346     Li1347    9.99   .     S
B1346     He1348    9.994   .     S
B1346     Be1372    9.997   .     S
Li1347     H1349    10.01   .     S
Li1347     H1350    10.01   .     S
He1348     He535    10.002   1_565     S
He1348     Er1344    9.993   1_565     S
He1348     H1349    9.995   .     S
Ti1351     Er1354    9.991   .     S
Ti1351     H1360    10.004   .     S
Ti1351     Ti1352    10.008   .     S
Ti1352     Er1353    9.991   1_565     S
Ti1352     H1359    10.004   .     S
Ti1352     Ti601    10.012   1_565     S
Er1353     Ti1352    9.991   1_545     S
Er1353     Er1354    9.991   1_545     S
Er1353     He1358    9.993   1_545     S
Er1353     Ce1584    10.004   .     S
Er1354     Er1353    9.991   1_565     S
Er1354     He1355    9.993   .     S
Er1354     Ce1593    10.004   .     S
He1355     H1360    9.995   .     S
He1355     B1356    9.994   .     S
He1355     He1525    10.002   .     S
B1356     Li1357    9.99   .     S
B1356     He1358    9.994   .     S
B1356     Be1378    9.997   .     S
Li1357     H1360    10.01   .     S
Li1357     H1359    10.01   .     S
He1358     Er1353    9.993   1_565     S
He1358     H1359    9.995   .     S
He1358     He1508    10.002   1_565     S
Ti1361     Er1363    9.991   1_565     S
Ti1361     H1369    10.004   .     S
Ti1361     Ti1362    10.008   .     S
Ti1361     Ti892    10.012   1_465     S
Ti1362     Er1364    9.991   .     S
Ti1362     H1370    10.004   .     S
Ti1362     Ti991    10.012   1_455     S
Er1363     Ti1361    9.991   1_545     S
Er1363     Er1364    9.991   1_545     S
Er1363     He1368    9.993   1_545     S
Er1363     Ce1588    10.004   .     S
Er1364     Er1363    9.991   1_565     S
Er1364     He1365    9.993   .     S
Er1364     Ce1601    10.004   .     S
He1365     H1370    9.995   .     S
He1365     B1366    9.994   .     S
He1365     He1528    10.002   .     S
B1366     Li1367    9.99   .     S
B1366     He1368    9.994   .     S
B1366     Be1373    9.997   .     S
Li1367     H1370    10.01   .     S
Li1367     H1369    10.01   .     S
Li1367     Li1437    10.012   .     S
He1368     Er1363    9.993   1_565     S
He1368     H1369    9.995   .     S
He1368     He1618    10.002   1_565     S
Be1371     Ce1388    9.993   .     S
Be1371     Ce1384    9.993   .     S
Be1371     Be1372    9.983   .     S
Be1372     Ce1389    9.993   .     S
Be1372     Ce1385    9.993   .     S
Be1373     Ce1421    9.993   .     S
Be1373     Ce1425    9.993   .     S
Be1373     Be1374    9.983   .     S
Be1374     Ce1424    9.993   .     S
Be1374     Ce1420    9.993   .     S
Be1374     B1436    9.997   .     S
Be1375     Ce1408    9.993   .     S
Be1375     Ce1400    9.993   .     S
Be1375     Be1376    9.983   .     S
Be1376     Ce1401    9.993   .     S
Be1376     Ce1409    9.993   .     S
Be1377     Ce1404    9.993   .     S
Be1377     Ce1428    9.993   .     S
Be1377     Be1378    9.983   .     S
Be1378     Ce1427    9.993   .     S
Be1378     Ce1405    9.993   .     S
Be1379     Ce1417    9.993   .     S
Be1379     Ce1396    9.993   .     S
Be1379     Be1380    9.983   .     S
Be1380     Ce1416    9.993   .     S
Be1380     Ce1397    9.993   .     S
Be1381     Ce1392    9.993   .     S
Be1381     Ce1411    9.993   .     S
Be1381     Be1382    9.983   .     S
Be1382     Ce1391    9.993   .     S
Be1382     Ce1412    9.993   .     S
V1383     Ce1385    9.993   .     S
V1383     V1387    9.993   .     S
V1383     V1386    9.993   .     S
V1383     V1410    9.993   .     S
Ce1384     V1386    9.993   .     S
Ce1384     Ce1385    9.985   .     S
V1386     V1390    9.993   .     S
V1386     V1406    9.993   .     S
V1387     Ce1389    9.993   .     S
V1387     V1390    9.993   .     S
V1387     V1398    9.993   .     S
Ce1388     V1390    9.993   .     S
Ce1388     Ce1389    9.985   .     S
V1390     V1394    9.993   .     S
Ce1391     V1394    9.993   .     S
Ce1391     Ce1392    9.985   .     S
Ce1392     V1393    9.993   .     S
V1393     V1413    9.993   .     S
V1393     V1394    9.993   .     S
V1393     V1395    9.993   .     S
V1394     V1414    9.993   .     S
V1395     Ce1397    9.993   1_556     S
V1395     V1415    9.993   .     S
V1395     V1398    9.993   .     S
Ce1396     V1398    9.993   1_554     S
Ce1396     Ce1397    9.985   .     S
Ce1397     V1395    9.993   1_554     S
V1398     Ce1396    9.993   1_556     S
V1398     V1418    9.993   .     S
V1399     Ce1401    9.993   1_565     S
V1399     V1402    9.993   .     S
V1399     V1410    9.993   .     S
V1399     V1418    9.993   .     S
Ce1400     V1402    9.993   1_545     S
Ce1400     Er1614    10.004   .     S
Ce1400     Ce1401    9.985   .     S
Ce1401     V1399    9.993   1_545     S
V1402     Ce1400    9.993   1_565     S
V1402     V1407    9.993   .     S
V1402     V1422    9.993   .     S
V1403     Ce1405    9.993   .     S
V1403     V1406    9.993   .     S
V1403     V1430    9.993   .     S
V1403     V1407    9.993   .     S
Ce1404     V1406    9.993   .     S
Ce1404     Ce1405    9.985   .     S
Ce1405     Er1503    10.004   .     S
V1406     V1429    9.993   .     S
V1407     Ce1408    9.993   1_565     S
V1407     V1410    9.993   .     S
Ce1408     V1407    9.993   1_545     S
Ce1408     Er1504    10.004   .     S
Ce1408     Ce1409    9.985   .     S
Ce1409     V1410    9.993   1_545     S
V1410     Ce1409    9.993   1_565     S
Ce1411     V1413    9.993   .     S
Ce1411     Ce1412    9.985   .     S
Ce1412     V1414    9.993   .     S
V1413     V1414    9.993   .     S
V1413     V1426    9.993   .     S
V1414     V1429    9.993   .     S
V1415     Ce1416    9.993   1_556     S
V1415     V1418    9.993   .     S
V1415     V1419    9.993   .     S
Ce1416     V1415    9.993   1_554     S
Ce1416     Ce1417    9.985   .     S
Ce1417     V1418    9.993   1_554     S
V1418     Ce1417    9.993   1_556     S
V1419     Ce1420    9.993   .     S
V1419     V1426    9.993   .     S
V1419     V1422    9.993   .     S
Ce1420     Ce1421    9.985   .     S
Ce1421     V1422    9.993   .     S
Ce1421     Er1613    10.004   .     S
V1422     V1423    9.993   .     S
V1423     Ce1425    9.993   .     S
V1423     V1430    9.993   .     S
V1423     V1426    9.993   .     S
Ce1424     V1426    9.993   .     S
Ce1424     Ce1425    9.985   .     S
Ce1425     Er1523    10.004   .     S
Ce1427     V1430    9.993   .     S
Ce1427     Er1524    10.004   .     S
Ce1427     Ce1428    9.985   .     S
Ce1428     V1429    9.993   .     S
V1429     V1430    9.993   .     S
Ti1431     Er1434    9.991   .     S
Ti1431     H1440    10.004   .     S
Ti1431     Ti1432    10.008   .     S
Ti1431     Ti792    10.012   1_455     S
Ti1432     Er1433    9.991   1_556     S
Ti1432     H1439    10.004   .     S
Ti1432     Ti1001    10.012   1_456     S
Er1433     Ti1432    9.991   1_554     S
Er1433     Er1434    9.991   1_554     S
Er1433     He1435    9.993   1_554     S
Er1434     Er1433    9.991   1_556     S
Er1434     He1438    9.993   .     S
He1435     Er1433    9.993   1_556     S
He1435     H1439    9.995   .     S
He1435     B1436    9.994   .     S
He1435     He1105    10.002   1_556     S
B1436     Li1437    9.99   .     S
B1436     He1438    9.994   .     S
Li1437     H1440    10.01   .     S
Li1437     H1439    10.01   .     S
He1438     H1440    9.995   .     S
Ti1441     Er1444    9.991   .     S
Ti1441     H1450    10.004   .     S
Ti1441     Ti1442    10.008   .     S
Ti1442     Er1443    9.991   1_455     S
Ti1442     H1449    10.004   .     S
Ti1442     Ti211    10.012   1_455     S
Er1443     Ti1442    9.991   1_655     S
Er1443     Er1444    9.991   1_655     S
Er1443     He1445    9.993   1_655     S
Er1444     Er1443    9.991   1_455     S
Er1444     He1448    9.993   .     S
He1445     Er1443    9.993   1_455     S
He1445     H1449    9.995   .     S
He1445     B1446    9.994   .     S
He1445     He748    10.002   1_455     S
B1446     Li1447    9.99   .     S
B1446     He1448    9.994   .     S
B1446     Be1555    9.997   .     S
Li1447     H1449    10.01   .     S
Li1447     H1450    10.01   .     S
Li1447     Li1487    10.012   .     S
He1448     H1450    9.995   .     S
Ti1451     Er1454    9.991   .     S
Ti1451     H1460    10.004   .     S
Ti1451     Ti1452    10.008   .     S
Ti1451     Ti1132    10.012   1_556     S
Ti1452     Er1453    9.991   1_455     S
Ti1452     H1459    10.004   .     S
Ti1452     Ti362    10.012   1_456     S
Er1453     Ti1452    9.991   1_655     S
Er1453     Er1454    9.991   1_655     S
Er1453     He1455    9.993   1_655     S
Er1454     Er1453    9.991   1_455     S
Er1454     He1458    9.993   .     S
He1455     Er1453    9.993   1_455     S
He1455     H1459    9.995   .     S
He1455     B1456    9.994   .     S
He1455     He895    10.002   1_455     S
B1456     Li1457    9.99   .     S
B1456     He1458    9.994   .     S
B1456     Be1559    9.997   .     S
Li1457     H1459    10.01   .     S
Li1457     H1460    10.01   .     S
Li1457     Li1617    10.012   .     S
He1458     H1460    9.995   .     S
Ti1461     Er1463    9.991   1_545     S
Ti1461     H1470    10.004   .     S
Ti1461     Ti1462    10.008   .     S
Ti1461     Ti1081    10.012   1_545     S
Ti1462     Er1464    9.991   1_455     S
Ti1462     H1469    10.004   .     S
Ti1462     Ti382    10.012   1_455     S
Er1463     Ti1461    9.991   1_565     S
Er1463     Er1464    9.991   1_465     S
Er1463     He1465    9.993   1_565     S
Er1464     Ti1462    9.991   1_655     S
Er1464     Er1463    9.991   1_645     S
Er1464     He1468    9.993   1_655     S
He1465     Er1463    9.993   1_545     S
He1465     H1470    9.995   .     S
He1465     B1466    9.994   .     S
He1465     He968    10.002   1_545     S
B1466     Li1467    9.99   .     S
B1466     He1468    9.994   .     S
B1466     Be1561    9.997   .     S
Li1467     H1469    10.01   .     S
Li1467     H1470    10.01   .     S
Li1467     Li1477    10.012   .     S
He1468     Er1464    9.993   1_455     S
He1468     H1469    9.995   .     S
He1468     He978    10.002   1_455     S
Ti1471     Er1474    9.991   .     S
Ti1471     H1480    10.004   .     S
Ti1471     Ti1472    10.008   .     S
Ti1472     Er1473    9.991   .     S
Ti1472     H1479    10.004   .     S
Er1473     Er1474    9.991   .     S
Er1473     He1475    9.993   .     S
Er1474     He1478    9.993   .     S
He1475     H1479    9.995   .     S
He1475     B1476    9.994   .     S
B1476     Li1477    9.99   .     S
B1476     He1478    9.994   .     S
B1476     Be1562    9.997   .     S
Li1477     H1480    10.01   .     S
Li1477     H1479    10.01   .     S
He1478     H1480    9.995   .     S
Ti1481     Er1484    9.991   .     S
Ti1481     H1490    10.004   .     S
Ti1481     Ti1482    10.008   .     S
Ti1482     Er1483    9.991   .     S
Ti1482     H1489    10.004   .     S
Er1483     Er1484    9.991   .     S
Er1483     He1485    9.993   .     S
Er1484     He1488    9.993   .     S
He1485     H1489    9.995   .     S
He1485     B1486    9.994   .     S
B1486     Li1487    9.99   .     S
B1486     He1488    9.994   .     S
B1486     Be1556    9.997   .     S
Li1487     H1489    10.01   .     S
Li1487     H1490    10.01   .     S
He1488     H1490    9.995   .     S
Ti1491     Er1493    9.991   .     S
Ti1491     H1499    10.004   .     S
Ti1491     Ti1492    10.008   .     S
Ti1492     Er1494    9.991   .     S
Ti1492     H1500    10.004   .     S
Er1493     Er1494    9.991   .     S
Er1493     He1495    9.993   .     S
Er1494     He1498    9.993   .     S
He1495     H1499    9.995   .     S
He1495     B1496    9.994   .     S
B1496     Li1497    9.99   .     S
B1496     He1498    9.994   .     S
B1496     Be1557    9.997   .     S
Li1497     H1500    10.01   .     S
Li1497     H1499    10.01   .     S
Li1497     Li1507    10.012   .     S
He1498     H1500    9.995   .     S
Ti1501     Er1504    9.991   .     S
Ti1501     H1509    10.004   .     S
Ti1501     Ti1502    10.008   .     S
Ti1502     Er1503    9.991   1_545     S
Ti1502     H1510    10.004   .     S
Ti1502     Ti261    10.012   1_545     S
Er1503     Ti1502    9.991   1_565     S
Er1503     Er1504    9.991   1_565     S
Er1503     He1508    9.993   1_565     S
Er1504     Er1503    9.991   1_545     S
Er1504     He1505    9.993   .     S
He1505     H1509    9.995   .     S
He1505     B1506    9.994   .     S
B1506     Li1507    9.99   .     S
B1506     He1508    9.994   .     S
B1506     Be1558    9.997   .     S
Li1507     H1510    10.01   .     S
Li1507     H1509    10.01   .     S
He1508     Er1503    9.993   1_545     S
He1508     H1510    9.995   .     S
He1508     He1358    10.002   1_545     S
Ti1511     Er1513    9.991   .     S
Ti1511     H1519    10.004   .     S
Ti1511     Ti1512    10.008   .     S
Ti1512     Er1514    9.991   .     S
Ti1512     H1520    10.004   .     S
Er1513     Er1514    9.991   .     S
Er1513     He1515    9.993   .     S
Er1514     He1518    9.993   .     S
He1515     H1519    9.995   .     S
He1515     B1516    9.994   .     S
B1516     Li1517    9.99   .     S
B1516     He1518    9.994   .     S
B1516     Be1551    9.997   .     S
Li1517     H1520    10.01   .     S
Li1517     H1519    10.01   .     S
Li1517     Li1537    10.012   .     S
He1518     H1520    9.995   .     S
Ti1521     Er1523    9.991   .     S
Ti1521     H1529    10.004   .     S
Ti1521     Ti1522    10.008   .     S
Ti1522     Er1524    9.991   .     S
Ti1522     H1530    10.004   .     S
Er1523     Er1524    9.991   .     S
Er1523     He1528    9.993   .     S
Er1524     He1525    9.993   .     S
He1525     H1530    9.995   .     S
He1525     B1526    9.994   .     S
B1526     Li1527    9.99   .     S
B1526     He1528    9.994   .     S
B1526     Be1553    9.997   .     S
Li1527     H1530    10.01   .     S
Li1527     H1529    10.01   .     S
Li1527     Li1547    10.012   .     S
He1528     H1529    9.995   .     S
Ti1531     Er1534    9.991   .     S
Ti1531     H1539    10.004   .     S
Ti1531     Ti1532    10.008   .     S
Ti1532     Er1533    9.991   1_545     S
Ti1532     H1540    10.004   .     S
Ti1532     Ti242    10.012   1_545     S
Er1533     Ti1532    9.991   1_565     S
Er1533     Er1534    9.991   1_565     S
Er1533     He1538    9.993   1_565     S
Er1534     Er1533    9.991   1_545     S
Er1534     He1535    9.993   .     S
He1535     H1539    9.995   .     S
He1535     B1536    9.994   .     S
B1536     Li1537    9.99   .     S
B1536     He1538    9.994   .     S
B1536     Be1552    9.997   .     S
Li1537     H1540    10.01   .     S
Li1537     H1539    10.01   .     S
He1538     Er1533    9.993   1_545     S
He1538     H1540    9.995   .     S
He1538     He998    10.002   1_545     S
Ti1541     Er1544    9.991   .     S
Ti1541     H1549    10.004   .     S
Ti1541     Ti1542    10.008   .     S
Ti1542     Er1543    9.991   1_455     S
Ti1542     H1550    10.004   .     S
Ti1542     Ti221    10.012   1_455     S
Er1543     Ti1542    9.991   1_655     S
Er1543     Er1544    9.991   1_655     S
Er1543     He1545    9.993   1_655     S
Er1544     Er1543    9.991   1_455     S
Er1544     He1548    9.993   .     S
He1545     Er1543    9.993   1_455     S
He1545     H1550    9.995   .     S
He1545     B1546    9.994   .     S
He1545     He995    10.002   1_455     S
B1546     Li1547    9.99   .     S
B1546     He1548    9.994   .     S
B1546     Be1554    9.997   .     S
Li1547     H1550    10.01   .     S
Li1547     H1549    10.01   .     S
He1548     H1549    9.995   .     S
Be1551     Ce1581    9.993   .     S
Be1551     Ce1596    9.993   .     S
Be1551     Be1552    9.983   .     S
Be1552     Ce1580    9.993   .     S
Be1552     Ce1597    9.993   .     S
Be1553     Ce1601    9.993   .     S
Be1553     Ce1593    9.993   .     S
Be1553     Be1554    9.983   .     S
Be1554     Ce1600    9.993   .     S
Be1554     Ce1592    9.993   .     S
Be1555     Ce1567    9.993   .     S
Be1555     Ce1571    9.993   .     S
Be1555     Be1556    9.983   .     S
Be1556     Ce1572    9.993   .     S
Be1556     Ce1568    9.993   .     S
Be1557     Ce1583    9.993   .     S
Be1557     Ce1576    9.993   .     S
Be1557     Be1558    9.983   .     S
Be1558     Ce1575    9.993   .     S
Be1558     Ce1584    9.993   .     S
Be1559     Ce1589    9.993   .     S
Be1559     Ce1564    9.993   .     S
Be1559     Be1560    9.983   .     S
Be1560     Ce1563    9.993   .     S
Be1560     Ce1588    9.993   .     S
Be1560     B1616    9.997   .     S
Be1561     Ce1608    9.993   .     S
Be1561     Ce1605    9.993   .     S
Be1561     Be1562    9.983   .     S
Be1562     Ce1604    9.993   .     S
Be1562     Ce1609    9.993   .     S
Ce1563     V1565    9.993   .     S
Ce1563     Ce1564    9.985   .     S
Ce1564     V1566    9.993   .     S
V1565     V1587    9.993   .     S
V1565     V1566    9.993   .     S
V1565     V1577    9.993   .     S
V1566     V1574    9.993   .     S
V1566     V1590    9.993   .     S
Ce1567     V1569    9.993   .     S
Ce1567     Ce1568    9.985   .     S
Ce1568     V1570    9.993   .     S
V1569     V1570    9.993   .     S
V1569     V1574    9.993   .     S
V1569     V1582    9.993   .     S
V1570     V1573    9.993   .     S
V1570     V1610    9.993   .     S
Ce1571     V1574    9.993   .     S
Ce1571     Ce1572    9.985   .     S
Ce1572     V1573    9.993   .     S
V1573     V1574    9.993   .     S
V1573     V1578    9.993   .     S
Ce1575     V1577    9.993   .     S
Ce1575     Ce1576    9.985   .     S
Ce1576     V1578    9.993   .     S
V1577     V1578    9.993   .     S
V1577     V1586    9.993   .     S
V1578     V1585    9.993   .     S
V1579     Ce1580    9.993   1_455     S
V1579     V1582    9.993   .     S
V1579     V1595    9.993   .     S
V1579     V1607    9.993   .     S
Ce1580     V1579    9.993   1_655     S
Ce1580     Ce1581    9.985   .     S
Ce1581     V1582    9.993   1_655     S
V1582     Ce1581    9.993   1_455     S
V1582     V1598    9.993   .     S
Ce1583     V1585    9.993   .     S
Ce1583     Ce1584    9.985   .     S
Ce1584     V1586    9.993   .     S
V1585     V1586    9.993   .     S
V1585     V1603    9.993   .     S
V1586     V1594    9.993   .     S
V1587     Ce1588    9.993   .     S
V1587     V1599    9.993   .     S
V1587     V1590    9.993   .     S
Ce1588     Ce1589    9.985   .     S
Ce1589     V1590    9.993   .     S
V1590     V1598    9.993   .     S
V1591     Ce1592    9.993   1_545     S
V1591     V1594    9.993   .     S
V1591     V1602    9.993   .     S
V1591     V1606    9.993   .     S
Ce1592     V1591    9.993   1_565     S
Ce1592     Ce1593    9.985   .     S
Ce1593     V1594    9.993   1_565     S
V1594     Ce1593    9.993   1_545     S
V1594     V1599    9.993   .     S
V1595     Ce1597    9.993   1_455     S
V1595     V1602    9.993   .     S
V1595     V1598    9.993   .     S
Ce1596     V1598    9.993   1_655     S
Ce1596     Ce1597    9.985   .     S
Ce1597     V1595    9.993   1_655     S
V1598     Ce1596    9.993   1_455     S
V1599     Ce1601    9.993   1_545     S
V1599     V1602    9.993   .     S
Ce1600     V1602    9.993   1_565     S
Ce1600     Ce1601    9.985   .     S
Ce1601     V1599    9.993   1_565     S
V1602     Ce1600    9.993   1_545     S
V1603     Ce1604    9.993   .     S
V1603     V1610    9.993   .     S
V1603     V1606    9.993   .     S
Ce1604     Ce1605    9.985   .     S
Ce1605     V1606    9.993   .     S
V1606     V1607    9.993   .     S
V1607     Ce1608    9.993   .     S
V1607     V1610    9.993   .     S
Ce1608     Ce1609    9.985   .     S
Ce1609     V1610    9.993   .     S
Ti1611     Er1614    9.991   .     S
Ti1611     H1620    10.004   .     S
Ti1611     Ti1612    10.008   .     S
Ti1611     Ti401    10.012   1_556     S
Ti1612     Er1613    9.991   1_545     S
Ti1612     H1619    10.004   .     S
Ti1612     Ti1102    10.012   1_546     S
Er1613     Ti1612    9.991   1_565     S
Er1613     Er1614    9.991   1_565     S
Er1613     He1618    9.993   1_565     S
Er1614     Er1613    9.991   1_545     S
Er1614     He1615    9.993   .     S
He1615     H1620    9.995   .     S
He1615     B1616    9.994   .     S
B1616     Li1617    9.99   .     S
B1616     He1618    9.994   .     S
Li1617     H1619    10.01   .     S
Li1617     H1620    10.01   .     S
He1618     Er1613    9.993   1_545     S
He1618     H1619    9.995   .     S
He1618     He1368    10.002   1_545     S
S1621     S1622    9.998   .     S
S1621     S1624    10.015   .     S
S1621     S1629    10.019   .     S
S1622     S1630    10.015   .     S
S1622     S1623    10.019   .     S
S1623     S1624    9.998   .     S
S1623     S1625    10.015   .     S
S1624     S1626    10.019   .     S
S1625     S1626    9.998   .     S
S1625     S1628    10.019   .     S
S1626     S1627    10.015   .     S
S1627     S1628    9.998   .     S
S1627     S1631    10.019   .     S
S1628     S1632    10.015   .     S
S1629     S1630    9.998   .     S
S1629     S1631    10.015   .     S
S1630     S1632    10.019   .     S
S1631     S1632    9.998   .     S
