data_soq
_audit_creation_date              2020-02-04
_audit_creation_method            'Pymatgen'
_symmetry_space_group_name_H-M    'P1'
_symmetry_Int_Tables_number       1
loop_
_symmetry_equiv_pos_as_xyz
  x,y,z
_cell_length_a                    35.35
_cell_length_b                    22.4827
_cell_length_c                    32.3201
_cell_angle_alpha                 90.0
_cell_angle_beta                 90.0
_cell_angle_gamma                 90.0
loop_
_atom_site_label
_atom_site_type_symbol
_atom_site_fract_x
_atom_site_fract_y
_atom_site_fract_z
V1     V     0.775   0.7177   0.7656
V2     V     0.725   0.2823   0.7344
V3     V     0.725   0.9677   0.5156
V4     V     0.775   0.5323   0.4844
V5     V     0.775   0.2177   0.2656
V6     V     0.725   0.7823   0.2344
V7     V     0.775   0.0323   0.9844
V8     V     0.725   0.4677   0.0156
V9     V     0.475   0.0323   0.2656
V10     V     0.525   0.4677   0.2344
V11     V     0.525   0.2823   0.5156
V12     V     0.475   0.7177   0.4844
V13     V     0.525   0.9677   0.7344
V14     V     0.475   0.5323   0.7656
V15     V     0.475   0.2177   0.9844
V16     V     0.525   0.7823   0.0156
V17     V     0.225   0.2823   0.2344
V18     V     0.275   0.7177   0.2656
V19     V     0.225   0.9677   0.0156
V20     V     0.275   0.5323   0.9844
V21     V     0.225   0.7823   0.7344
V22     V     0.275   0.2177   0.7656
V23     V     0.225   0.4677   0.5156
V24     V     0.275   0.0323   0.4844
V25     V     0.025   0.4677   0.7344
V26     V     0.975   0.0323   0.7656
V27     V     0.025   0.7823   0.5156
V28     V     0.975   0.2177   0.4844
V29     V     0.025   0.9677   0.2344
V30     V     0.975   0.5323   0.2656
V31     V     0.025   0.2823   0.0156
V32     V     0.975   0.7177   0.9844
loop_
_geom_bond_atom_site_label_1
_geom_bond_atom_site_label_2
_geom_bond_distance
_geom_bond_site_symmetry_2
_ccdc_geom_bond_type
V1     V8    10.0   1_556     S
V1     V2    10.0   .     S
V1     V4    10.0   .     S
V1     V3    10.0   .     S
V1     V7    10.0   1_565     S
V1     V26    10.0   1_565     S
V1     V32    10.0   .     S
V2     V8    10.0   1_556     S
V2     V7    10.0   .     S
V2     V4    10.0   .     S
V2     V3    10.0   1_545     S
V2     V13    10.0   1_545     S
V2     V11    10.0   .     S
V3     V4    10.0   .     S
V3     V5    10.0   1_565     S
V3     V6    10.0   .     S
V3     V2    10.0   1_565     S
V3     V11    10.0   1_565     S
V3     V13    10.0   .     S
V4     V6    10.0   .     S
V4     V5    10.0   .     S
V4     V28    10.0   .     S
V4     V30    10.0   .     S
V5     V3    10.0   1_545     S
V5     V6    10.0   1_545     S
V5     V7    10.0   1_554     S
V5     V8    10.0   .     S
V5     V30    10.0   .     S
V5     V28    10.0   .     S
V6     V5    10.0   1_565     S
V6     V7    10.0   1_564     S
V6     V8    10.0   .     S
V6     V10    10.0   .     S
V6     V16    10.0   .     S
V7     V6    10.0   1_546     S
V7     V5    10.0   1_556     S
V7     V8    10.0   1_556     S
V7     V1    10.0   1_545     S
V7     V32    10.0   1_545     S
V7     V26    10.0   .     S
V8     V1    10.0   1_554     S
V8     V2    10.0   1_554     S
V8     V7    10.0   1_554     S
V8     V16    10.0   .     S
V8     V10    10.0   .     S
V9     V24    10.0   .     S
V9     V18    10.0   1_545     S
V9     V10    10.0   .     S
V9     V16    10.0   1_545     S
V9     V15    10.0   1_554     S
V9     V11    10.0   .     S
V9     V12    10.0   1_545     S
V10     V15    10.0   1_554     S
V10     V12    10.0   .     S
V10     V11    10.0   .     S
V10     V16    10.0   .     S
V11     V3    10.0   1_545     S
V11     V12    10.0   .     S
V11     V14    10.0   .     S
V11     V13    10.0   1_545     S
V12     V24    10.0   1_565     S
V12     V18    10.0   .     S
V12     V14    10.0   .     S
V12     V13    10.0   .     S
V12     V9    10.0   1_565     S
V13     V2    10.0   1_565     S
V13     V14    10.0   .     S
V13     V15    10.0   1_565     S
V13     V16    10.0   1_556     S
V13     V11    10.0   1_565     S
V14     V16    10.0   1_556     S
V14     V15    10.0   .     S
V14     V20    10.0   .     S
V14     V22    10.0   .     S
V15     V9    10.0   1_556     S
V15     V10    10.0   1_556     S
V15     V16    10.0   1_546     S
V15     V13    10.0   1_545     S
V15     V20    10.0   .     S
V15     V22    10.0   .     S
V16     V9    10.0   1_565     S
V16     V15    10.0   1_564     S
V16     V13    10.0   1_554     S
V16     V14    10.0   1_554     S
V17     V29    10.0   1_545     S
V17     V31    10.0   .     S
V17     V23    10.0   .     S
V17     V24    10.0   .     S
V17     V18    10.0   .     S
V17     V20    10.0   1_554     S
V17     V19    10.0   1_545     S
V18     V9    10.0   1_565     S
V18     V23    10.0   .     S
V18     V20    10.0   1_554     S
V18     V19    10.0   .     S
V18     V24    10.0   1_565     S
V19     V31    10.0   1_565     S
V19     V29    10.0   .     S
V19     V20    10.0   1_554     S
V19     V22    10.0   1_564     S
V19     V21    10.0   1_554     S
V19     V17    10.0   1_565     S
V20     V17    10.0   1_556     S
V20     V18    10.0   1_556     S
V20     V19    10.0   1_556     S
V20     V21    10.0   .     S
V20     V22    10.0   .     S
V21     V19    10.0   1_556     S
V21     V22    10.0   1_565     S
V21     V24    10.0   1_565     S
V21     V23    10.0   .     S
V21     V25    10.0   .     S
V21     V27    10.0   .     S
V22     V19    10.0   1_546     S
V22     V21    10.0   1_545     S
V22     V24    10.0   .     S
V22     V23    10.0   .     S
V23     V24    10.0   .     S
V23     V27    10.0   .     S
V23     V25    10.0   .     S
V24     V12    10.0   1_545     S
V24     V21    10.0   1_545     S
V24     V18    10.0   1_545     S
V25     V26    10.0   1_455     S
V25     V28    10.0   1_455     S
V25     V32    10.0   1_455     S
V25     V31    10.0   1_556     S
V25     V27    10.0   .     S
V26     V25    10.0   1_655     S
V26     V28    10.0   .     S
V26     V27    10.0   1_645     S
V26     V31    10.0   1_656     S
V26     V32    10.0   1_545     S
V26     V1    10.0   1_545     S
V27     V28    10.0   1_465     S
V27     V26    10.0   1_465     S
V27     V29    10.0   .     S
V27     V30    10.0   1_455     S
V28     V27    10.0   1_645     S
V28     V25    10.0   1_655     S
V28     V29    10.0   1_645     S
V28     V30    10.0   .     S
V29     V17    10.0   1_565     S
V29     V28    10.0   1_465     S
V29     V32    10.0   1_454     S
V29     V30    10.0   1_455     S
V29     V31    10.0   1_565     S
V30     V27    10.0   1_655     S
V30     V31    10.0   1_655     S
V30     V32    10.0   1_554     S
V30     V29    10.0   1_655     S
V31     V19    10.0   1_545     S
V31     V30    10.0   1_455     S
V31     V32    10.0   1_454     S
V31     V25    10.0   1_554     S
V31     V26    10.0   1_454     S
V31     V29    10.0   1_545     S
V32     V30    10.0   1_556     S
V32     V29    10.0   1_656     S
V32     V31    10.0   1_656     S
V32     V25    10.0   1_655     S
V32     V26    10.0   1_565     S
V32     V7    10.0   1_565     S
