data_spn
_audit_creation_date              2020-02-04
_audit_creation_method            'Pymatgen'
_symmetry_space_group_name_H-M    'P1'
_symmetry_Int_Tables_number       1
loop_
_symmetry_equiv_pos_as_xyz
  x,y,z
_cell_length_a                    48.9898
_cell_length_b                    48.9898
_cell_length_c                    48.9898
_cell_angle_alpha                 90.0
_cell_angle_beta                 90.0
_cell_angle_gamma                 90.0
loop_
_atom_site_label
_atom_site_type_symbol
_atom_site_fract_x
_atom_site_fract_y
_atom_site_fract_z
Er1     Er     0.75   0.75   0.0
V2     V     0.6667   0.5833   0.0833
Er3     Er     0.0   0.5   0.5
Er4     Er     0.0   0.25   0.25
V5     V     0.9167   0.4167   0.3333
V6     V     0.9167   0.3333   0.4167
Er7     Er     0.5   0.25   0.75
Er8     Er     0.25   0.5   0.75
V9     V     0.3333   0.3333   0.8333
V10     V     0.4167   0.4167   0.8333
Er11     Er     0.25   0.75   0.5
Er12     Er     0.5   0.75   0.25
V13     V     0.3333   0.8333   0.3333
V14     V     0.1667   0.6667   0.6667
V15     V     0.4167   0.8333   0.4167
Er16     Er     0.0   0.75   0.75
V17     V     0.0833   0.6667   0.5833
Er18     Er     0.75   0.5   0.25
Er19     Er     0.75   0.25   0.5
V20     V     0.8333   0.3333   0.3333
V21     V     0.6667   0.6667   0.1667
V22     V     0.8333   0.4167   0.4167
Er23     Er     0.5   0.5   0.0
V24     V     0.5833   0.6667   0.0833
Er25     Er     0.25   0.25   0.0
V26     V     0.3333   0.4167   0.9167
V27     V     0.4167   0.3333   0.9167
Er28     Er     0.5   0.0   0.5
Er29     Er     0.25   0.0   0.25
V30     V     0.3333   0.9167   0.4167
V31     V     0.4167   0.9167   0.3333
Er32     Er     0.0   0.0   0.0
V33     V     0.0833   0.0833   0.1667
V34     V     0.0833   0.1667   0.0833
V35     V     0.1667   0.0833   0.0833
V36     V     0.1667   0.1667   0.1667
Er37     Er     0.75   0.0   0.75
V38     V     0.6667   0.0833   0.5833
V39     V     0.6667   0.1667   0.6667
V40     V     0.5833   0.0833   0.6667
V41     V     0.5833   0.1667   0.5833
V42     V     0.5833   0.5833   0.1667
V43     V     0.0833   0.5833   0.6667
V44     V     0.8333   0.9167   0.9167
V45     V     0.9167   0.9167   0.8333
V46     V     0.9167   0.8333   0.9167
V47     V     0.1667   0.5833   0.5833
V48     V     0.8333   0.8333   0.8333
loop_
_geom_bond_atom_site_label_1
_geom_bond_atom_site_label_2
_geom_bond_distance
_geom_bond_site_symmetry_2
_ccdc_geom_bond_type
Er1     V44    10.0   1_554     S
Er1     V48    10.0   1_554     S
Er1     V46    10.0   1_554     S
Er1     V21    10.0   .     S
Er1     V2    10.0   .     S
Er1     V24    10.0   .     S
V2     Er18    10.0   .     S
V2     Er23    10.0   .     S
Er3     V47    10.0   .     S
Er3     V17    10.0   .     S
Er3     V43    10.0   .     S
Er3     V22    10.0   1_455     S
Er3     V5    10.0   1_455     S
Er3     V6    10.0   1_455     S
Er4     V6    10.0   1_455     S
Er4     V20    10.0   1_455     S
Er4     V5    10.0   1_455     S
Er4     V34    10.0   .     S
Er4     V36    10.0   .     S
Er4     V33    10.0   .     S
V5     Er3    10.0   1_655     S
V5     Er4    10.0   1_655     S
V5     Er18    10.0   .     S
V6     Er3    10.0   1_655     S
V6     Er4    10.0   1_655     S
V6     Er19    10.0   .     S
Er7     V40    10.0   .     S
Er7     V41    10.0   .     S
Er7     V39    10.0   .     S
Er7     V9    10.0   .     S
Er7     V10    10.0   .     S
Er7     V27    10.0   .     S
Er8     V10    10.0   .     S
Er8     V26    10.0   .     S
Er8     V9    10.0   .     S
Er8     V47    10.0   .     S
Er8     V43    10.0   .     S
Er8     V14    10.0   .     S
V9     Er25    10.0   1_556     S
V10     Er23    10.0   1_556     S
Er11     V15    10.0   .     S
Er11     V30    10.0   .     S
Er11     V13    10.0   .     S
Er11     V14    10.0   .     S
Er11     V17    10.0   .     S
Er11     V47    10.0   .     S
Er12     V13    10.0   .     S
Er12     V31    10.0   .     S
Er12     V15    10.0   .     S
Er12     V42    10.0   .     S
Er12     V21    10.0   .     S
Er12     V24    10.0   .     S
V13     Er29    10.0   1_565     S
V14     Er16    10.0   .     S
V15     Er28    10.0   1_565     S
Er16     V46    10.0   1_455     S
Er16     V48    10.0   1_455     S
Er16     V45    10.0   1_455     S
Er16     V17    10.0   .     S
Er16     V43    10.0   .     S
Er18     V21    10.0   .     S
Er18     V42    10.0   .     S
Er18     V22    10.0   .     S
Er18     V20    10.0   .     S
Er19     V39    10.0   .     S
Er19     V41    10.0   .     S
Er19     V38    10.0   .     S
Er19     V20    10.0   .     S
Er19     V22    10.0   .     S
V20     Er4    10.0   1_655     S
V22     Er3    10.0   1_655     S
Er23     V42    10.0   .     S
Er23     V24    10.0   .     S
Er23     V26    10.0   1_554     S
Er23     V10    10.0   1_554     S
Er23     V27    10.0   1_554     S
Er25     V9    10.0   1_554     S
Er25     V26    10.0   1_554     S
Er25     V27    10.0   1_554     S
Er25     V35    10.0   .     S
Er25     V34    10.0   .     S
Er25     V36    10.0   .     S
V26     Er23    10.0   1_556     S
V26     Er25    10.0   1_556     S
V27     Er23    10.0   1_556     S
V27     Er25    10.0   1_556     S
Er28     V38    10.0   .     S
Er28     V41    10.0   .     S
Er28     V40    10.0   .     S
Er28     V31    10.0   1_545     S
Er28     V15    10.0   1_545     S
Er28     V30    10.0   1_545     S
Er29     V31    10.0   1_545     S
Er29     V13    10.0   1_545     S
Er29     V30    10.0   1_545     S
Er29     V35    10.0   .     S
Er29     V33    10.0   .     S
Er29     V36    10.0   .     S
V30     Er28    10.0   1_565     S
V30     Er29    10.0   1_565     S
V31     Er28    10.0   1_565     S
V31     Er29    10.0   1_565     S
Er32     V33    10.0   .     S
Er32     V35    10.0   .     S
Er32     V34    10.0   .     S
Er32     V45    10.0   1_444     S
Er32     V46    10.0   1_444     S
Er32     V44    10.0   1_444     S
Er37     V44    10.0   1_545     S
Er37     V48    10.0   1_545     S
Er37     V45    10.0   1_545     S
Er37     V38    10.0   .     S
Er37     V39    10.0   .     S
Er37     V40    10.0   .     S
V44     Er1    10.0   1_556     S
V44     Er32    10.0   1_666     S
V44     Er37    10.0   1_565     S
V45     Er16    10.0   1_655     S
V45     Er32    10.0   1_666     S
V45     Er37    10.0   1_565     S
V46     Er1    10.0   1_556     S
V46     Er16    10.0   1_655     S
V46     Er32    10.0   1_666     S
V48     Er1    10.0   1_556     S
V48     Er16    10.0   1_655     S
V48     Er37    10.0   1_565     S
