data_srsf
_audit_creation_date              2020-02-04
_audit_creation_method            'Pymatgen'
_symmetry_space_group_name_H-M    'P1'
_symmetry_Int_Tables_number       1
loop_
_symmetry_equiv_pos_as_xyz
  x,y,z
_cell_length_a                    56.5685
_cell_length_b                    56.5685
_cell_length_c                    56.5685
_cell_angle_alpha                 90.0
_cell_angle_beta                 90.0
_cell_angle_gamma                 90.0
loop_
_atom_site_label
_atom_site_type_symbol
_atom_site_fract_x
_atom_site_fract_y
_atom_site_fract_z
V1     V     0.75   0.375   0.125
V2     V     0.375   0.125   0.75
V3     V     0.125   0.75   0.375
V4     V     0.625   0.375   0.75
V5     V     0.75   0.625   0.625
V6     V     0.625   0.625   0.75
V7     V     0.75   0.625   0.375
V8     V     0.75   0.375   0.875
V9     V     0.375   0.875   0.75
V10     V     0.375   0.75   0.625
V11     V     0.5   0.625   0.625
V12     V     0.625   0.625   0.5
V13     V     0.625   0.5   0.625
V14     V     0.625   0.75   0.625
V15     V     0.625   0.5   0.875
V16     V     0.5   0.875   0.625
V17     V     0.875   0.625   0.5
V18     V     0.125   0.25   0.125
V19     V     0.5   0.125   0.875
V20     V     0.625   0.25   0.875
V21     V     0.5   0.375   0.875
V22     V     0.625   0.375   0.0
V23     V     0.375   0.125   0.0
V24     V     0.375   0.25   0.875
V25     V     0.375   0.0   0.875
V26     V     0.25   0.125   0.875
V27     V     0.125   0.125   0.0
V28     V     0.25   0.125   0.125
V29     V     0.125   0.875   0.5
V30     V     0.25   0.875   0.625
V31     V     0.375   0.875   0.5
V32     V     0.375   0.0   0.625
V33     V     0.125   0.0   0.375
V34     V     0.25   0.875   0.375
V35     V     0.0   0.875   0.375
V36     V     0.125   0.875   0.25
V37     V     0.125   0.0   0.125
V38     V     0.125   0.125   0.25
V39     V     0.875   0.25   0.125
V40     V     0.0   0.125   0.125
V41     V     0.875   0.5   0.125
V42     V     0.875   0.625   0.25
V43     V     0.875   0.5   0.375
V44     V     0.0   0.625   0.375
V45     V     0.0   0.375   0.125
V46     V     0.875   0.375   0.25
V47     V     0.875   0.375   0.0
V48     V     0.875   0.75   0.375
loop_
_geom_bond_atom_site_label_1
_geom_bond_atom_site_label_2
_geom_bond_distance
_geom_bond_site_symmetry_2
_ccdc_geom_bond_type
V1     V22    10.0   .     S
V1     V47    10.0   .     S
V1     V46    10.0   .     S
V1     V41    10.0   .     S
V1     V39    10.0   .     S
V2     V32    10.0   .     S
V2     V25    10.0   .     S
V2     V24    10.0   .     S
V2     V19    10.0   .     S
V2     V26    10.0   .     S
V3     V44    10.0   .     S
V3     V35    10.0   .     S
V3     V34    10.0   .     S
V3     V29    10.0   .     S
V3     V36    10.0   .     S
V4     V21    10.0   .     S
V4     V13    10.0   .     S
V4     V15    10.0   .     S
V4     V20    10.0   .     S
V4     V8    10.0   .     S
V5     V17    10.0   .     S
V5     V13    10.0   .     S
V5     V12    10.0   .     S
V5     V6    10.0   .     S
V5     V14    10.0   .     S
V6     V15    10.0   .     S
V6     V11    10.0   .     S
V6     V13    10.0   .     S
V6     V14    10.0   .     S
V7     V43    10.0   .     S
V7     V12    10.0   .     S
V7     V17    10.0   .     S
V7     V42    10.0   .     S
V7     V48    10.0   .     S
V8     V47    10.0   1_556     S
V8     V22    10.0   1_556     S
V8     V15    10.0   .     S
V8     V20    10.0   .     S
V9     V25    10.0   1_565     S
V9     V32    10.0   1_565     S
V9     V16    10.0   .     S
V9     V30    10.0   .     S
V9     V10    10.0   .     S
V10     V31    10.0   .     S
V10     V11    10.0   .     S
V10     V16    10.0   .     S
V10     V30    10.0   .     S
V11     V12    10.0   .     S
V11     V13    10.0   .     S
V11     V14    10.0   .     S
V12     V13    10.0   .     S
V12     V14    10.0   .     S
V14     V16    10.0   .     S
V15     V21    10.0   .     S
V15     V22    10.0   1_556     S
V16     V32    10.0   1_565     S
V16     V31    10.0   .     S
V17     V44    10.0   1_655     S
V17     V43    10.0   .     S
V17     V48    10.0   .     S
V18     V45    10.0   .     S
V18     V27    10.0   .     S
V18     V40    10.0   .     S
V18     V28    10.0   .     S
V18     V38    10.0   .     S
V19     V23    10.0   1_556     S
V19     V20    10.0   .     S
V19     V24    10.0   .     S
V19     V25    10.0   .     S
V20     V22    10.0   1_556     S
V20     V21    10.0   .     S
V21     V22    10.0   1_556     S
V21     V24    10.0   .     S
V22     V8    10.0   1_554     S
V22     V15    10.0   1_554     S
V22     V20    10.0   1_554     S
V22     V21    10.0   1_554     S
V23     V19    10.0   1_554     S
V23     V24    10.0   1_554     S
V23     V25    10.0   1_554     S
V23     V26    10.0   1_554     S
V23     V28    10.0   .     S
V24     V23    10.0   1_556     S
V24     V26    10.0   .     S
V25     V9    10.0   1_545     S
V25     V23    10.0   1_556     S
V25     V26    10.0   .     S
V26     V23    10.0   1_556     S
V26     V27    10.0   1_556     S
V27     V26    10.0   1_554     S
V27     V28    10.0   .     S
V27     V40    10.0   .     S
V27     V37    10.0   .     S
V28     V37    10.0   .     S
V28     V38    10.0   .     S
V29     V33    10.0   1_565     S
V29     V30    10.0   .     S
V29     V34    10.0   .     S
V29     V35    10.0   .     S
V30     V32    10.0   1_565     S
V30     V31    10.0   .     S
V31     V32    10.0   1_565     S
V31     V34    10.0   .     S
V32     V9    10.0   1_545     S
V32     V16    10.0   1_545     S
V32     V30    10.0   1_545     S
V32     V31    10.0   1_545     S
V33     V29    10.0   1_545     S
V33     V34    10.0   1_545     S
V33     V35    10.0   1_545     S
V33     V36    10.0   1_545     S
V33     V38    10.0   .     S
V34     V33    10.0   1_565     S
V34     V36    10.0   .     S
V35     V33    10.0   1_565     S
V35     V36    10.0   .     S
V35     V48    10.0   1_455     S
V36     V33    10.0   1_565     S
V36     V37    10.0   1_565     S
V37     V36    10.0   1_545     S
V37     V38    10.0   .     S
V37     V40    10.0   .     S
V38     V40    10.0   .     S
V39     V45    10.0   1_655     S
V39     V47    10.0   .     S
V39     V40    10.0   1_655     S
V39     V46    10.0   .     S
V40     V39    10.0   1_455     S
V41     V45    10.0   1_655     S
V41     V42    10.0   .     S
V41     V46    10.0   .     S
V41     V47    10.0   .     S
V42     V44    10.0   1_655     S
V42     V43    10.0   .     S
V42     V48    10.0   .     S
V43     V44    10.0   1_655     S
V43     V46    10.0   .     S
V44     V17    10.0   1_455     S
V44     V42    10.0   1_455     S
V44     V43    10.0   1_455     S
V44     V48    10.0   1_455     S
V45     V39    10.0   1_455     S
V45     V41    10.0   1_455     S
V45     V46    10.0   1_455     S
V45     V47    10.0   1_455     S
V46     V45    10.0   1_655     S
V47     V8    10.0   1_554     S
V47     V45    10.0   1_655     S
V48     V35    10.0   1_655     S
V48     V44    10.0   1_655     S
