data_sspa
_audit_creation_date              2020-02-04
_audit_creation_method            'Pymatgen'
_symmetry_space_group_name_H-M    'P1'
_symmetry_Int_Tables_number       1
loop_
_symmetry_equiv_pos_as_xyz
  x,y,z
_cell_length_a                    155.4639
_cell_length_b                    155.4639
_cell_length_c                    90.1446
_cell_angle_alpha                 90.0
_cell_angle_beta                 90.0
_cell_angle_gamma                 120.0
loop_
_atom_site_label
_atom_site_type_symbol
_atom_site_fract_x
_atom_site_fract_y
_atom_site_fract_z
He1     He     0.3238   0.0774   0.2495
Li2     Li     0.289   0.0539   0.152
H3     H     0.3001   0.1178   0.1953
Er4     Er     0.3523   0.0561   0.3315
Ti5     Ti     0.4039   0.0688   0.255
V6     V     0.4166   0.1204   0.3315
Er7     Er     0.3894   0.019   0.3352
Ti8     Ti     0.4022   0.0706   0.4117
V9     V     0.4537   0.0833   0.3352
He10     He     0.4108   0.9904   0.4172
Li11     Li     0.3872   0.9557   0.5147
H12     H     0.4512   0.9667   0.4714
He13     He     0.7537   0.6762   0.2495
Li14     Li     0.7648   0.711   0.152
H15     H     0.8178   0.6999   0.1953
Er16     Er     0.6296   0.6106   0.3352
Ti17     Ti     0.6684   0.5978   0.4117
V18     V     0.6295   0.5463   0.3352
Er19     Er     0.7038   0.6477   0.3315
Ti20     Ti     0.6649   0.5961   0.255
V21     V     0.7038   0.5834   0.3315
He22     He     0.5797   0.5892   0.4172
Li23     Li     0.5685   0.6128   0.5147
H24     H     0.5156   0.5488   0.4714
He25     He     0.6762   0.7537   0.7505
Li26     Li     0.711   0.7648   0.848
H27     H     0.6999   0.8178   0.8047
Er28     Er     0.6106   0.6296   0.6648
Ti29     Ti     0.5978   0.6684   0.5883
V30     V     0.5463   0.6295   0.6648
Er31     Er     0.6477   0.7038   0.6685
Ti32     Ti     0.5961   0.6649   0.745
V33     V     0.5834   0.7038   0.6685
He34     He     0.5892   0.5797   0.5828
Li35     Li     0.6128   0.5685   0.4853
H36     H     0.5488   0.5156   0.5286
S37     S     0.4385   0.4971   0.6234
Ce38     Ce     0.4881   0.5119   0.5427
S39     S     0.5029   0.5615   0.6234
Ce40     Ce     0.5119   0.4881   0.4573
S41     S     0.4971   0.4385   0.3766
S42     S     0.5615   0.5029   0.3766
He43     He     0.0774   0.7537   0.7505
Li44     Li     0.0539   0.7648   0.848
H45     H     0.1178   0.8178   0.8047
Er46     Er     0.019   0.6296   0.6648
Ti47     Ti     0.0706   0.6684   0.5883
V48     V     0.0833   0.6295   0.6648
Er49     Er     0.0561   0.7038   0.6685
Ti50     Ti     0.0688   0.6649   0.745
V51     V     0.1204   0.7038   0.6685
He52     He     0.9904   0.5797   0.5828
Li53     Li     0.9557   0.5685   0.4853
H54     H     0.9667   0.5156   0.5286
Ce55     Ce     0.0238   0.5119   0.5427
S56     S     0.0586   0.5615   0.6234
S57     S     0.0586   0.4971   0.6234
S58     S     0.9414   0.4385   0.3766
Ce59     Ce     0.9762   0.4881   0.4573
S60     S     0.9414   0.5029   0.3766
He61     He     0.0774   0.3238   0.7505
Li62     Li     0.0539   0.289   0.848
H63     H     0.1178   0.3001   0.8047
Er64     Er     0.0561   0.3523   0.6685
Ti65     Ti     0.0688   0.4039   0.745
V66     V     0.1204   0.4166   0.6685
Er67     Er     0.019   0.3894   0.6648
Ti68     Ti     0.0706   0.4022   0.5883
V69     V     0.0833   0.4537   0.6648
He70     He     0.9904   0.4108   0.5828
Li71     Li     0.9557   0.3872   0.4853
H72     H     0.9667   0.4512   0.5286
He73     He     0.6762   0.9226   0.7505
Li74     Li     0.711   0.9461   0.848
H75     H     0.6999   0.8822   0.8047
Er76     Er     0.6477   0.9439   0.6685
Ti77     Ti     0.5961   0.9312   0.745
V78     V     0.5834   0.8796   0.6685
Er79     Er     0.6106   0.981   0.6648
Ti80     Ti     0.5978   0.9294   0.5883
V81     V     0.5463   0.9167   0.6648
He82     He     0.5892   0.0096   0.5828
Li83     Li     0.6128   0.0443   0.4853
H84     H     0.5488   0.0333   0.5286
Ce85     Ce     0.6904   0.8452   0.876
S86     S     0.7252   0.8304   0.9568
S87     S     0.7252   0.8948   0.9568
S88     S     0.6081   0.8362   0.7099
S89     S     0.6081   0.7719   0.7099
Ce90     Ce     0.6429   0.8215   0.7907
He91     He     0.7441   0.087   0.0839
Li92     Li     0.7205   0.0982   0.1814
H93     H     0.7845   0.1511   0.138
Er94     Er     0.6857   0.9629   0.9981
Ti95     Ti     0.7372   0.0017   0.9216
V96     V     0.7499   0.9629   0.9981
Er97     Er     0.7228   0.0371   0.0019
Ti98     Ti     0.7355   0.9983   0.0784
V99     V     0.787   0.0371   0.0019
He100     He     0.6571   0.913   0.9161
Li101     Li     0.6224   0.9018   0.8186
H102     H     0.6334   0.8489   0.862
He103     He     0.7441   0.6571   0.0839
Li104     Li     0.7205   0.6224   0.1814
H105     H     0.7845   0.6334   0.138
Er106     Er     0.7228   0.6857   0.0019
Ti107     Ti     0.7355   0.7372   0.0784
V108     V     0.787   0.7499   0.0019
Er109     Er     0.6857   0.7228   0.9981
Ti110     Ti     0.7372   0.7355   0.9216
V111     V     0.7499   0.787   0.9981
He112     He     0.6571   0.7441   0.9161
Li113     Li     0.6224   0.7205   0.8186
H114     H     0.6334   0.7845   0.862
He115     He     0.913   0.6571   0.0839
Li116     Li     0.9018   0.6224   0.1814
H117     H     0.8489   0.6334   0.138
Er118     Er     0.0371   0.7228   0.9981
Ti119     Ti     0.9983   0.7355   0.9216
V120     V     0.0371   0.787   0.9981
Er121     Er     0.9629   0.6857   0.0019
Ti122     Ti     0.0017   0.7372   0.0784
V123     V     0.9629   0.7499   0.0019
He124     He     0.087   0.7441   0.9161
Li125     Li     0.0982   0.7205   0.8186
H126     H     0.1511   0.7845   0.862
Ce127     Ce     0.8215   0.6429   0.2093
S128     S     0.7719   0.6081   0.2901
S129     S     0.8362   0.6081   0.2901
S130     S     0.8304   0.7252   0.0432
Ce131     Ce     0.8452   0.6904   0.124
S132     S     0.8948   0.7252   0.0432
He133     He     0.9226   0.6762   0.2495
Li134     Li     0.9461   0.711   0.152
H135     H     0.8822   0.6999   0.1953
Er136     Er     0.9439   0.6477   0.3315
Ti137     Ti     0.9312   0.5961   0.255
V138     V     0.8796   0.5834   0.3315
Er139     Er     0.981   0.6106   0.3352
Ti140     Ti     0.9294   0.5978   0.4117
V141     V     0.9167   0.5463   0.3352
He142     He     0.0096   0.5892   0.4172
Li143     Li     0.0443   0.6128   0.5147
H144     H     0.0333   0.5488   0.4714
Ce145     Ce     0.1548   0.8452   0.876
S146     S     0.1696   0.8948   0.9568
S147     S     0.1052   0.8304   0.9568
S148     S     0.2281   0.8362   0.7099
Ce149     Ce     0.1785   0.8215   0.7907
S150     S     0.1638   0.7719   0.7099
He151     He     0.3429   0.087   0.0839
Li152     Li     0.3776   0.0982   0.1814
H153     H     0.3666   0.1511   0.138
Er154     Er     0.2772   0.9629   0.9981
Ti155     Ti     0.2645   0.0017   0.9216
V156     V     0.213   0.9629   0.9981
Er157     Er     0.3143   0.0371   0.0019
Ti158     Ti     0.2628   0.9983   0.0784
V159     V     0.2501   0.0371   0.0019
He160     He     0.2559   0.913   0.9161
Li161     Li     0.2795   0.9018   0.8186
H162     H     0.2155   0.8489   0.862
S163     S     0.4385   0.9414   0.6234
S164     S     0.5029   0.9414   0.6234
Ce165     Ce     0.4881   0.9762   0.5427
Ce166     Ce     0.5119   0.0238   0.4573
S167     S     0.4971   0.0586   0.3766
S168     S     0.5615   0.0586   0.3766
He169     He     0.4203   0.0096   0.5828
Li170     Li     0.4315   0.0443   0.4853
H171     H     0.4844   0.0333   0.5286
Er172     Er     0.2962   0.9439   0.6685
Ti173     Ti     0.3351   0.9312   0.745
V174     V     0.2962   0.8796   0.6685
Er175     Er     0.3704   0.981   0.6648
Ti176     Ti     0.3316   0.9294   0.5883
V177     V     0.3705   0.9167   0.6648
He178     He     0.2463   0.9226   0.7505
Li179     Li     0.2352   0.9461   0.848
H180     H     0.1822   0.8822   0.8047
He181     He     0.7537   0.0774   0.2495
Li182     Li     0.7648   0.0539   0.152
H183     H     0.8178   0.1178   0.1953
Er184     Er     0.6296   0.019   0.3352
Ti185     Ti     0.6684   0.0706   0.4117
V186     V     0.6295   0.0833   0.3352
Er187     Er     0.7038   0.0561   0.3315
Ti188     Ti     0.6649   0.0688   0.255
V189     V     0.7038   0.1204   0.3315
He190     He     0.5797   0.9904   0.4172
Li191     Li     0.5685   0.9557   0.5147
H192     H     0.5156   0.9667   0.4714
S193     S     0.2748   0.1052   0.0432
Ce194     Ce     0.3096   0.1548   0.124
S195     S     0.2748   0.1696   0.0432
S196     S     0.3919   0.2281   0.2901
Ce197     Ce     0.3571   0.1785   0.2093
S198     S     0.3919   0.1638   0.2901
He199     He     0.4108   0.4203   0.4172
Li200     Li     0.3872   0.4315   0.5147
H201     H     0.4512   0.4844   0.4714
Er202     Er     0.3523   0.2962   0.3315
Ti203     Ti     0.4039   0.3351   0.255
V204     V     0.4166   0.2962   0.3315
Er205     Er     0.3894   0.3704   0.3352
Ti206     Ti     0.4022   0.3316   0.4117
V207     V     0.4537   0.3705   0.3352
He208     He     0.3238   0.2463   0.2495
Li209     Li     0.289   0.2352   0.152
H210     H     0.3001   0.1822   0.1953
He211     He     0.0096   0.4203   0.4172
Li212     Li     0.0443   0.4315   0.5147
H213     H     0.0333   0.4844   0.4714
Er214     Er     0.9439   0.2962   0.3315
Ti215     Ti     0.9312   0.3351   0.255
V216     V     0.8796   0.2962   0.3315
Er217     Er     0.981   0.3704   0.3352
Ti218     Ti     0.9294   0.3316   0.4117
V219     V     0.9167   0.3705   0.3352
He220     He     0.9226   0.2463   0.2495
Li221     Li     0.9461   0.2352   0.152
H222     H     0.8822   0.1822   0.1953
S223     S     0.7719   0.1638   0.2901
Ce224     Ce     0.8215   0.1785   0.2093
S225     S     0.8362   0.2281   0.2901
Ce226     Ce     0.8452   0.1548   0.124
S227     S     0.8948   0.1696   0.0432
S228     S     0.8304   0.1052   0.0432
He229     He     0.913   0.2559   0.0839
Li230     Li     0.9018   0.2795   0.1814
H231     H     0.8489   0.2155   0.138
Er232     Er     0.0371   0.3143   0.9981
Ti233     Ti     0.9983   0.2628   0.9216
V234     V     0.0371   0.2501   0.9981
Er235     Er     0.9629   0.2772   0.0019
Ti236     Ti     0.0017   0.2645   0.0784
V237     V     0.9629   0.213   0.0019
He238     He     0.087   0.3429   0.9161
Li239     Li     0.0982   0.3776   0.8186
H240     H     0.1511   0.3666   0.862
He241     He     0.4203   0.4108   0.5828
Li242     Li     0.4315   0.3872   0.4853
H243     H     0.4844   0.4512   0.5286
Er244     Er     0.2962   0.3523   0.6685
Ti245     Ti     0.3351   0.4039   0.745
V246     V     0.2962   0.4166   0.6685
Er247     Er     0.3704   0.3894   0.6648
Ti248     Ti     0.3316   0.4022   0.5883
V249     V     0.3705   0.4537   0.6648
He250     He     0.2463   0.3238   0.7505
Li251     Li     0.2352   0.289   0.848
H252     H     0.1822   0.3001   0.8047
S253     S     0.1696   0.2748   0.9568
S254     S     0.1052   0.2748   0.9568
Ce255     Ce     0.1548   0.3096   0.876
S256     S     0.1638   0.3919   0.7099
S257     S     0.2281   0.3919   0.7099
Ce258     Ce     0.1785   0.3571   0.7907
He259     He     0.3429   0.2559   0.0839
Li260     Li     0.3776   0.2795   0.1814
H261     H     0.3666   0.2155   0.138
Er262     Er     0.2772   0.3143   0.9981
Ti263     Ti     0.2645   0.2628   0.9216
V264     V     0.213   0.2501   0.9981
Er265     Er     0.3143   0.2772   0.0019
Ti266     Ti     0.2628   0.2645   0.0784
V267     V     0.2501   0.213   0.0019
He268     He     0.2559   0.3429   0.9161
Li269     Li     0.2795   0.3776   0.8186
H270     H     0.2155   0.3666   0.862
loop_
_geom_bond_atom_site_label_1
_geom_bond_atom_site_label_2
_geom_bond_distance
_geom_bond_site_symmetry_2
_ccdc_geom_bond_type
He1     H3    10.0   .     S
He1     Li2    10.0   .     S
He1     Er4    10.004   .     S
Li2     H3    10.003   .     S
Li2     Ti158    10.005   1_545     S
H3     H210    10.009   .     S
Er4     V6    9.992   .     S
Er4     Ti5    9.994   .     S
Er4     Er7    9.998   .     S
Er4     Ti8    10.002   .     S
Ti5     V6    9.993   .     S
Ti5     Er7    10.002   .     S
Ti5     V9    9.999   .     S
Ti5     Li152    10.005   .     S
V6     V9    10.001   .     S
V6     Ti8    9.999   .     S
V6     S198    10.004   .     S
Er7     V9    9.992   .     S
Er7     Ti8    9.994   .     S
Er7     He10    10.004   1_545     S
Ti8     V9    9.993   .     S
Ti8     Li170    10.005   .     S
V9     S167    10.004   .     S
He10     Er7    10.004   1_565     S
He10     H12    10.0   .     S
He10     Li11    10.0   .     S
Li11     H12    10.003   .     S
Li11     Ti176    10.005   .     S
H12     H192    10.009   .     S
He13     H15    10.0   .     S
He13     Li14    10.0   .     S
He13     Er19    10.004   .     S
Li14     H15    10.003   .     S
Li14     Ti107    10.005   .     S
H15     H135    10.009   .     S
Er16     V18    9.992   .     S
Er16     Ti17    9.994   .     S
Er16     Er19    9.998   .     S
Er16     Ti20    10.002   .     S
Er16     He22    10.004   .     S
Ti17     V18    9.993   .     S
Ti17     Er19    10.002   .     S
Ti17     V21    9.999   .     S
Ti17     Li35    10.005   .     S
V18     Ti20    9.999   .     S
V18     V21    10.001   .     S
V18     S42    10.004   .     S
Er19     V21    9.992   .     S
Er19     Ti20    9.994   .     S
Ti20     V21    9.993   .     S
Ti20     Li104    10.005   .     S
V21     S128    10.004   .     S
He22     H24    10.0   .     S
He22     Li23    10.0   .     S
Li23     H24    10.003   .     S
Li23     Ti29    10.005   .     S
H24     H201    10.009   .     S
He25     H27    10.0   .     S
He25     Li26    10.0   .     S
He25     Er31    10.004   .     S
Li26     H27    10.003   .     S
Li26     Ti110    10.005   .     S
H27     H75    10.009   .     S
Er28     V30    9.992   .     S
Er28     Ti29    9.994   .     S
Er28     Er31    9.998   .     S
Er28     Ti32    10.002   .     S
Er28     He34    10.004   .     S
Ti29     V30    9.993   .     S
Ti29     Er31    10.002   .     S
Ti29     V33    9.999   .     S
V30     V33    10.001   .     S
V30     Ti32    9.999   .     S
V30     S39    10.004   .     S
Er31     V33    9.992   .     S
Er31     Ti32    9.994   .     S
Ti32     V33    9.993   .     S
Ti32     Li113    10.005   .     S
V33     S89    10.004   .     S
He34     H36    10.0   .     S
He34     Li35    10.0   .     S
Li35     H36    10.003   .     S
H36     H243    10.009   .     S
S37     Ce38    9.999   .     S
S37     S39    10.003   .     S
S37     V249    10.004   .     S
Ce38     S39    9.999   .     S
Ce38     Ce40    10.003   .     S
Ce40     S42    9.999   .     S
Ce40     S41    9.999   .     S
S41     S42    10.003   .     S
S41     V207    10.004   .     S
He43     H45    10.0   .     S
He43     Li44    10.0   .     S
He43     Er49    10.004   .     S
Li44     H45    10.003   .     S
Li44     Ti119    10.005   1_455     S
H45     H180    10.009   .     S
Er46     V48    9.992   .     S
Er46     Ti47    9.994   .     S
Er46     Er49    9.998   .     S
Er46     Ti50    10.002   .     S
Er46     He52    10.004   1_455     S
Ti47     V48    9.993   .     S
Ti47     Er49    10.002   .     S
Ti47     V51    9.999   .     S
Ti47     Li143    10.005   .     S
V48     V51    10.001   .     S
V48     Ti50    9.999   .     S
V48     S56    10.004   .     S
Er49     V51    9.992   .     S
Er49     Ti50    9.994   .     S
Ti50     V51    9.993   .     S
Ti50     Li125    10.005   .     S
V51     S150    10.004   .     S
He52     Er46    10.004   1_655     S
He52     H54    10.0   .     S
He52     Li53    10.0   .     S
Li53     H54    10.003   .     S
Li53     Ti140    10.005   .     S
H54     H72    10.009   .     S
Ce55     S56    9.999   .     S
Ce55     S57    9.999   .     S
Ce55     Ce59    10.003   1_455     S
S56     S57    10.003   .     S
S57     V69    10.004   .     S
S58     Ce59    9.999   .     S
S58     S60    10.003   .     S
S58     V219    10.004   .     S
Ce59     Ce55    10.003   1_655     S
Ce59     S60    9.999   .     S
S60     V141    10.004   .     S
He61     H63    10.0   .     S
He61     Li62    10.0   .     S
He61     Er64    10.004   .     S
Li62     H63    10.003   .     S
Li62     Ti233    10.005   1_455     S
H63     H252    10.009   .     S
Er64     V66    9.992   .     S
Er64     Ti65    9.994   .     S
Er64     Er67    9.998   .     S
Er64     Ti68    10.002   .     S
Ti65     V66    9.993   .     S
Ti65     Er67    10.002   .     S
Ti65     V69    9.999   .     S
Ti65     Li239    10.005   .     S
V66     V69    10.001   .     S
V66     Ti68    9.999   .     S
V66     S256    10.004   .     S
Er67     V69    9.992   .     S
Er67     Ti68    9.994   .     S
Er67     He70    10.004   1_455     S
Ti68     V69    9.993   .     S
Ti68     Li212    10.005   .     S
He70     Er67    10.004   1_655     S
He70     H72    10.0   .     S
He70     Li71    10.0   .     S
Li71     H72    10.003   .     S
Li71     Ti218    10.005   .     S
He73     H75    10.0   .     S
He73     Li74    10.0   .     S
He73     Er76    10.004   .     S
Li74     H75    10.003   .     S
Li74     Ti95    10.005   1_565     S
Er76     V78    9.992   .     S
Er76     Ti77    9.994   .     S
Er76     Er79    9.998   .     S
Er76     Ti80    10.002   .     S
Ti77     V78    9.993   .     S
Ti77     Er79    10.002   .     S
Ti77     V81    9.999   .     S
Ti77     Li101    10.005   .     S
V78     Ti80    9.999   .     S
V78     V81    10.001   .     S
V78     S88    10.004   .     S
Er79     V81    9.992   .     S
Er79     Ti80    9.994   .     S
Er79     He82    10.004   1_565     S
Ti80     V81    9.993   .     S
Ti80     Li191    10.005   .     S
V81     S164    10.004   .     S
He82     Er79    10.004   1_545     S
He82     H84    10.0   .     S
He82     Li83    10.0   .     S
Li83     H84    10.003   .     S
Li83     Ti185    10.005   .     S
H84     H171    10.009   .     S
Ce85     S86    9.999   .     S
Ce85     S87    9.999   .     S
Ce85     Ce90    10.003   .     S
S86     S87    10.003   .     S
S86     V111    10.004   .     S
S87     V96    10.004   .     S
S88     S89    10.003   .     S
S88     Ce90    9.999   .     S
S89     Ce90    9.999   .     S
He91     H93    10.0   .     S
He91     Li92    10.0   .     S
He91     Er97    10.004   .     S
Li92     H93    10.003   .     S
Li92     Ti188    10.005   .     S
H93     H231    10.009   .     S
Er94     V96    9.992   .     S
Er94     Ti95    9.994   1_565     S
Er94     Er97    9.998   1_566     S
Er94     Ti98    10.002   1_556     S
Er94     He100    10.004   .     S
Ti95     Li74    10.005   1_545     S
Ti95     Er94    9.994   1_545     S
Ti95     V96    9.993   1_545     S
Ti95     Er97    10.002   1_556     S
Ti95     V99    9.999   1_556     S
V96     Ti95    9.993   1_565     S
V96     V99    10.001   1_566     S
V96     Ti98    9.999   1_556     S
Er97     V99    9.992   .     S
Er97     Ti98    9.994   1_545     S
Er97     Er94    9.998   1_544     S
Er97     Ti95    10.002   1_554     S
Ti98     Er97    9.994   1_565     S
Ti98     V99    9.993   1_565     S
Ti98     Er94    10.002   1_554     S
Ti98     V96    9.999   1_554     S
Ti98     Li182    10.005   1_565     S
V99     Ti98    9.993   1_545     S
V99     Ti95    9.999   1_554     S
V99     V96    10.001   1_544     S
V99     S228    10.004   .     S
He100     H102    10.0   .     S
He100     Li101    10.0   .     S
Li101     H102    10.003   .     S
H102     H114    10.009   .     S
He103     H105    10.0   .     S
He103     Li104    10.0   .     S
He103     Er106    10.004   .     S
Li104     H105    10.003   .     S
H105     H117    10.009   .     S
Er106     V108    9.992   .     S
Er106     Ti107    9.994   .     S
Er106     Er109    9.998   1_554     S
Er106     Ti110    10.002   1_554     S
Ti107     V108    9.993   .     S
Ti107     Er109    10.002   1_554     S
Ti107     V111    9.999   1_554     S
V108     Ti110    9.999   1_554     S
V108     V111    10.001   1_554     S
V108     S130    10.004   .     S
Er109     V111    9.992   .     S
Er109     Ti110    9.994   .     S
Er109     Er106    9.998   1_556     S
Er109     Ti107    10.002   1_556     S
Er109     He112    10.004   .     S
Ti110     V111    9.993   .     S
Ti110     Er106    10.002   1_556     S
Ti110     V108    9.999   1_556     S
V111     V108    10.001   1_556     S
V111     Ti107    9.999   1_556     S
He112     H114    10.0   .     S
He112     Li113    10.0   .     S
Li113     H114    10.003   .     S
He115     H117    10.0   .     S
He115     Li116    10.0   .     S
He115     Er121    10.004   .     S
Li116     H117    10.003   .     S
Li116     Ti137    10.005   .     S
Er118     V120    9.992   .     S
Er118     Ti119    9.994   1_455     S
Er118     Er121    9.998   1_456     S
Er118     Ti122    10.002   1_556     S
Er118     He124    10.004   .     S
Ti119     Li44    10.005   1_655     S
Ti119     Er118    9.994   1_655     S
Ti119     V120    9.993   1_655     S
Ti119     Er121    10.002   1_556     S
Ti119     V123    9.999   1_556     S
V120     Ti119    9.993   1_455     S
V120     V123    10.001   1_456     S
V120     Ti122    9.999   1_556     S
V120     S147    10.004   .     S
Er121     V123    9.992   .     S
Er121     Ti122    9.994   1_655     S
Er121     Er118    9.998   1_654     S
Er121     Ti119    10.002   1_554     S
Ti122     Er121    9.994   1_455     S
Ti122     V123    9.993   1_455     S
Ti122     Er118    10.002   1_554     S
Ti122     V120    9.999   1_554     S
Ti122     Li134    10.005   1_455     S
V123     Ti122    9.993   1_655     S
V123     Ti119    9.999   1_554     S
V123     V120    10.001   1_654     S
V123     S132    10.004   .     S
He124     H126    10.0   .     S
He124     Li125    10.0   .     S
Li125     H126    10.003   .     S
H126     H162    10.009   .     S
Ce127     S128    9.999   .     S
Ce127     S129    9.999   .     S
Ce127     Ce131    10.003   .     S
S128     S129    10.003   .     S
S129     V138    10.004   .     S
S130     Ce131    9.999   .     S
S130     S132    10.003   .     S
Ce131     S132    9.999   .     S
He133     H135    10.0   .     S
He133     Li134    10.0   .     S
He133     Er136    10.004   .     S
Li134     H135    10.003   .     S
Li134     Ti122    10.005   1_655     S
Er136     V138    9.992   .     S
Er136     Ti137    9.994   .     S
Er136     Er139    9.998   .     S
Er136     Ti140    10.002   .     S
Ti137     V138    9.993   .     S
Ti137     Er139    10.002   .     S
Ti137     V141    9.999   .     S
V138     Ti140    9.999   .     S
V138     V141    10.001   .     S
Er139     V141    9.992   .     S
Er139     Ti140    9.994   .     S
Er139     He142    10.004   1_655     S
Ti140     V141    9.993   .     S
He142     Er139    10.004   1_455     S
He142     H144    10.0   .     S
He142     Li143    10.0   .     S
Li143     H144    10.003   .     S
H144     H213    10.009   .     S
Ce145     S147    9.999   .     S
Ce145     S146    9.999   .     S
Ce145     Ce149    10.003   .     S
S146     S147    10.003   .     S
S146     V156    10.004   .     S
S148     S150    10.003   .     S
S148     Ce149    9.999   .     S
S148     V174    10.004   .     S
Ce149     S150    9.999   .     S
He151     H153    10.0   .     S
He151     Li152    10.0   .     S
He151     Er157    10.004   .     S
Li152     H153    10.003   .     S
H153     H261    10.009   .     S
Er154     V156    9.992   .     S
Er154     Ti155    9.994   1_565     S
Er154     Er157    9.998   1_566     S
Er154     Ti158    10.002   1_556     S
Er154     He160    10.004   .     S
Ti155     Er154    9.994   1_545     S
Ti155     V156    9.993   1_545     S
Ti155     Er157    10.002   1_556     S
Ti155     V159    9.999   1_556     S
Ti155     Li179    10.005   1_545     S
V156     Ti155    9.993   1_565     S
V156     V159    10.001   1_566     S
V156     Ti158    9.999   1_556     S
Er157     V159    9.992   .     S
Er157     Ti158    9.994   1_545     S
Er157     Er154    9.998   1_544     S
Er157     Ti155    10.002   1_554     S
Ti158     Li2    10.005   1_565     S
Ti158     Er157    9.994   1_565     S
Ti158     V159    9.993   1_565     S
Ti158     Er154    10.002   1_554     S
Ti158     V156    9.999   1_554     S
V159     Ti158    9.993   1_545     S
V159     Ti155    9.999   1_554     S
V159     V156    10.001   1_544     S
V159     S193    10.004   .     S
He160     H162    10.0   .     S
He160     Li161    10.0   .     S
Li161     H162    10.003   .     S
Li161     Ti173    10.005   .     S
S163     Ce165    9.999   .     S
S163     S164    10.003   .     S
S163     V177    10.004   .     S
S164     Ce165    9.999   .     S
Ce165     Ce166    10.003   1_565     S
Ce166     Ce165    10.003   1_545     S
Ce166     S168    9.999   .     S
Ce166     S167    9.999   .     S
S167     S168    10.003   .     S
S168     V186    10.004   .     S
He169     H171    10.0   .     S
He169     Li170    10.0   .     S
He169     Er175    10.004   1_545     S
Li170     H171    10.003   .     S
Er172     V174    9.992   .     S
Er172     Ti173    9.994   .     S
Er172     Er175    9.998   .     S
Er172     Ti176    10.002   .     S
Er172     He178    10.004   .     S
Ti173     V174    9.993   .     S
Ti173     Er175    10.002   .     S
Ti173     V177    9.999   .     S
V174     Ti176    9.999   .     S
V174     V177    10.001   .     S
Er175     V177    9.992   .     S
Er175     Ti176    9.994   .     S
Er175     He169    10.004   1_565     S
Ti176     V177    9.993   .     S
He178     H180    10.0   .     S
He178     Li179    10.0   .     S
Li179     H180    10.003   .     S
Li179     Ti155    10.005   1_565     S
He181     H183    10.0   .     S
He181     Li182    10.0   .     S
He181     Er187    10.004   .     S
Li182     H183    10.003   .     S
Li182     Ti98    10.005   1_545     S
H183     H222    10.009   .     S
Er184     V186    9.992   .     S
Er184     Ti185    9.994   .     S
Er184     Er187    9.998   .     S
Er184     Ti188    10.002   .     S
Er184     He190    10.004   1_545     S
Ti185     V186    9.993   .     S
Ti185     Er187    10.002   .     S
Ti185     V189    9.999   .     S
V186     Ti188    9.999   .     S
V186     V189    10.001   .     S
Er187     V189    9.992   .     S
Er187     Ti188    9.994   .     S
Ti188     V189    9.993   .     S
V189     S223    10.004   .     S
He190     Er184    10.004   1_565     S
He190     H192    10.0   .     S
He190     Li191    10.0   .     S
Li191     H192    10.003   .     S
S193     S195    10.003   .     S
S193     Ce194    9.999   .     S
Ce194     S195    9.999   .     S
Ce194     Ce197    10.003   .     S
S195     V267    10.004   .     S
S196     Ce197    9.999   .     S
S196     S198    10.003   .     S
S196     V204    10.004   .     S
Ce197     S198    9.999   .     S
He199     H201    10.0   .     S
He199     Li200    10.0   .     S
He199     Er205    10.004   .     S
Li200     H201    10.003   .     S
Li200     Ti248    10.005   .     S
Er202     V204    9.992   .     S
Er202     Ti203    9.994   .     S
Er202     Er205    9.998   .     S
Er202     Ti206    10.002   .     S
Er202     He208    10.004   .     S
Ti203     V204    9.993   .     S
Ti203     Er205    10.002   .     S
Ti203     V207    9.999   .     S
Ti203     Li260    10.005   .     S
V204     Ti206    9.999   .     S
V204     V207    10.001   .     S
Er205     V207    9.992   .     S
Er205     Ti206    9.994   .     S
Ti206     V207    9.993   .     S
Ti206     Li242    10.005   .     S
He208     H210    10.0   .     S
He208     Li209    10.0   .     S
Li209     H210    10.003   .     S
Li209     Ti266    10.005   .     S
He211     H213    10.0   .     S
He211     Li212    10.0   .     S
He211     Er217    10.004   1_455     S
Li212     H213    10.003   .     S
Er214     V216    9.992   .     S
Er214     Ti215    9.994   .     S
Er214     Er217    9.998   .     S
Er214     Ti218    10.002   .     S
Er214     He220    10.004   .     S
Ti215     V216    9.993   .     S
Ti215     Er217    10.002   .     S
Ti215     V219    9.999   .     S
Ti215     Li230    10.005   .     S
V216     V219    10.001   .     S
V216     Ti218    9.999   .     S
V216     S225    10.004   .     S
Er217     V219    9.992   .     S
Er217     Ti218    9.994   .     S
Er217     He211    10.004   1_655     S
Ti218     V219    9.993   .     S
He220     H222    10.0   .     S
He220     Li221    10.0   .     S
Li221     H222    10.003   .     S
Li221     Ti236    10.005   1_655     S
S223     Ce224    9.999   .     S
S223     S225    10.003   .     S
Ce224     S225    9.999   .     S
Ce224     Ce226    10.003   .     S
Ce226     S227    9.999   .     S
Ce226     S228    9.999   .     S
S227     S228    10.003   .     S
S227     V237    10.004   .     S
He229     H231    10.0   .     S
He229     Li230    10.0   .     S
He229     Er235    10.004   .     S
Li230     H231    10.003   .     S
Er232     V234    9.992   .     S
Er232     Ti233    9.994   1_455     S
Er232     Er235    9.998   1_456     S
Er232     Ti236    10.002   1_556     S
Er232     He238    10.004   .     S
Ti233     Li62    10.005   1_655     S
Ti233     Er232    9.994   1_655     S
Ti233     V234    9.993   1_655     S
Ti233     Er235    10.002   1_556     S
Ti233     V237    9.999   1_556     S
V234     Ti233    9.993   1_455     S
V234     V237    10.001   1_456     S
V234     Ti236    9.999   1_556     S
V234     S254    10.004   .     S
Er235     V237    9.992   .     S
Er235     Ti236    9.994   1_655     S
Er235     Er232    9.998   1_654     S
Er235     Ti233    10.002   1_554     S
Ti236     Li221    10.005   1_455     S
Ti236     Er235    9.994   1_455     S
Ti236     V237    9.993   1_455     S
Ti236     Er232    10.002   1_554     S
Ti236     V234    9.999   1_554     S
V237     Ti236    9.993   1_655     S
V237     Ti233    9.999   1_554     S
V237     V234    10.001   1_654     S
He238     H240    10.0   .     S
He238     Li239    10.0   .     S
Li239     H240    10.003   .     S
H240     H270    10.009   .     S
He241     H243    10.0   .     S
He241     Li242    10.0   .     S
He241     Er247    10.004   .     S
Li242     H243    10.003   .     S
Er244     V246    9.992   .     S
Er244     Ti245    9.994   .     S
Er244     Er247    9.998   .     S
Er244     Ti248    10.002   .     S
Er244     He250    10.004   .     S
Ti245     V246    9.993   .     S
Ti245     Er247    10.002   .     S
Ti245     V249    9.999   .     S
Ti245     Li269    10.005   .     S
V246     Ti248    9.999   .     S
V246     V249    10.001   .     S
V246     S257    10.004   .     S
Er247     V249    9.992   .     S
Er247     Ti248    9.994   .     S
Ti248     V249    9.993   .     S
He250     H252    10.0   .     S
He250     Li251    10.0   .     S
Li251     H252    10.003   .     S
Li251     Ti263    10.005   .     S
S253     S254    10.003   .     S
S253     Ce255    9.999   .     S
S253     V264    10.004   .     S
S254     Ce255    9.999   .     S
Ce255     Ce258    10.003   .     S
S256     Ce258    9.999   .     S
S256     S257    10.003   .     S
S257     Ce258    9.999   .     S
He259     H261    10.0   .     S
He259     Li260    10.0   .     S
He259     Er265    10.004   .     S
Li260     H261    10.003   .     S
Er262     V264    9.992   .     S
Er262     Ti263    9.994   .     S
Er262     Er265    9.998   1_556     S
Er262     Ti266    10.002   1_556     S
Er262     He268    10.004   .     S
Ti263     V264    9.993   .     S
Ti263     Er265    10.002   1_556     S
Ti263     V267    9.999   1_556     S
V264     V267    10.001   1_556     S
V264     Ti266    9.999   1_556     S
Er265     V267    9.992   .     S
Er265     Ti266    9.994   .     S
Er265     Er262    9.998   1_554     S
Er265     Ti263    10.002   1_554     S
Ti266     V267    9.993   .     S
Ti266     Er262    10.002   1_554     S
Ti266     V264    9.999   1_554     S
V267     Ti263    9.999   1_554     S
V267     V264    10.001   1_554     S
He268     H270    10.0   .     S
He268     Li269    10.0   .     S
Li269     H270    10.003   .     S
