data_sst
_audit_creation_date              2020-02-04
_audit_creation_method            'Pymatgen'
_symmetry_space_group_name_H-M    'P1'
_symmetry_Int_Tables_number       1
loop_
_symmetry_equiv_pos_as_xyz
  x,y,z
_cell_length_a                    40.0
_cell_length_b                    40.0
_cell_length_c                    40.0
_cell_angle_alpha                 90.0
_cell_angle_beta                 90.0
_cell_angle_gamma                 90.0
loop_
_atom_site_label
_atom_site_type_symbol
_atom_site_fract_x
_atom_site_fract_y
_atom_site_fract_z
V1     V     0.125   0.125   0.375
V2     V     0.125   0.875   0.375
V3     V     0.875   0.125   0.375
V4     V     0.875   0.875   0.375
V5     V     0.125   0.375   0.375
V6     V     0.125   0.375   0.625
V7     V     0.125   0.625   0.375
V8     V     0.125   0.625   0.625
V9     V     0.625   0.125   0.375
V10     V     0.625   0.125   0.625
V11     V     0.375   0.125   0.375
V12     V     0.375   0.125   0.625
V13     V     0.875   0.625   0.375
V14     V     0.875   0.625   0.625
V15     V     0.875   0.375   0.375
V16     V     0.875   0.375   0.625
V17     V     0.375   0.875   0.375
V18     V     0.375   0.875   0.625
V19     V     0.625   0.875   0.625
V20     V     0.625   0.875   0.375
V21     V     0.125   0.875   0.625
V22     V     0.125   0.125   0.625
V23     V     0.875   0.125   0.625
V24     V     0.875   0.875   0.625
V25     V     0.375   0.125   0.125
V26     V     0.375   0.125   0.875
V27     V     0.375   0.875   0.875
V28     V     0.375   0.875   0.125
V29     V     0.875   0.375   0.125
V30     V     0.875   0.375   0.875
V31     V     0.125   0.375   0.125
V32     V     0.125   0.375   0.875
V33     V     0.625   0.875   0.125
V34     V     0.625   0.875   0.875
V35     V     0.625   0.125   0.875
V36     V     0.625   0.125   0.125
V37     V     0.125   0.625   0.125
V38     V     0.125   0.625   0.875
V39     V     0.875   0.625   0.875
V40     V     0.875   0.625   0.125
V41     V     0.375   0.375   0.125
V42     V     0.375   0.625   0.125
V43     V     0.625   0.625   0.125
V44     V     0.625   0.375   0.125
V45     V     0.375   0.625   0.875
V46     V     0.625   0.625   0.875
V47     V     0.625   0.375   0.875
V48     V     0.375   0.375   0.875
loop_
_geom_bond_atom_site_label_1
_geom_bond_atom_site_label_2
_geom_bond_distance
_geom_bond_site_symmetry_2
_ccdc_geom_bond_type
V1     V2    10.0   1_545     S
V1     V3    10.0   1_455     S
V1     V5    10.0   .     S
V1     V11    10.0   .     S
V2     V1    10.0   1_565     S
V2     V4    10.0   1_455     S
V2     V17    10.0   .     S
V2     V7    10.0   .     S
V3     V1    10.0   1_655     S
V3     V4    10.0   1_545     S
V3     V9    10.0   .     S
V3     V15    10.0   .     S
V4     V3    10.0   1_565     S
V4     V2    10.0   1_655     S
V4     V13    10.0   .     S
V4     V20    10.0   .     S
V5     V6    10.0   .     S
V5     V7    10.0   .     S
V5     V31    10.0   .     S
V6     V8    10.0   .     S
V6     V32    10.0   .     S
V6     V22    10.0   .     S
V7     V8    10.0   .     S
V7     V37    10.0   .     S
V8     V21    10.0   .     S
V8     V38    10.0   .     S
V9     V10    10.0   .     S
V9     V11    10.0   .     S
V9     V36    10.0   .     S
V10     V12    10.0   .     S
V10     V35    10.0   .     S
V10     V23    10.0   .     S
V11     V12    10.0   .     S
V11     V25    10.0   .     S
V12     V22    10.0   .     S
V12     V26    10.0   .     S
V13     V14    10.0   .     S
V13     V15    10.0   .     S
V13     V40    10.0   .     S
V14     V16    10.0   .     S
V14     V39    10.0   .     S
V14     V24    10.0   .     S
V15     V16    10.0   .     S
V15     V29    10.0   .     S
V16     V23    10.0   .     S
V16     V30    10.0   .     S
V17     V18    10.0   .     S
V17     V20    10.0   .     S
V17     V28    10.0   .     S
V18     V19    10.0   .     S
V18     V27    10.0   .     S
V18     V21    10.0   .     S
V19     V20    10.0   .     S
V19     V24    10.0   .     S
V19     V34    10.0   .     S
V20     V33    10.0   .     S
V21     V22    10.0   1_565     S
V21     V24    10.0   1_455     S
V22     V21    10.0   1_545     S
V22     V23    10.0   1_455     S
V23     V22    10.0   1_655     S
V23     V24    10.0   1_545     S
V24     V23    10.0   1_565     S
V24     V21    10.0   1_655     S
V25     V26    10.0   1_554     S
V25     V28    10.0   1_545     S
V25     V41    10.0   .     S
V26     V25    10.0   1_556     S
V26     V27    10.0   1_545     S
V26     V48    10.0   .     S
V27     V26    10.0   1_565     S
V27     V28    10.0   1_556     S
V27     V45    10.0   .     S
V28     V27    10.0   1_554     S
V28     V25    10.0   1_565     S
V28     V42    10.0   .     S
V29     V30    10.0   1_554     S
V29     V31    10.0   1_655     S
V29     V44    10.0   .     S
V30     V29    10.0   1_556     S
V30     V32    10.0   1_655     S
V30     V47    10.0   .     S
V31     V29    10.0   1_455     S
V31     V32    10.0   1_554     S
V31     V41    10.0   .     S
V32     V31    10.0   1_556     S
V32     V30    10.0   1_455     S
V32     V48    10.0   .     S
V33     V34    10.0   1_554     S
V33     V36    10.0   1_565     S
V33     V43    10.0   .     S
V34     V33    10.0   1_556     S
V34     V35    10.0   1_565     S
V34     V46    10.0   .     S
V35     V34    10.0   1_545     S
V35     V36    10.0   1_556     S
V35     V47    10.0   .     S
V36     V35    10.0   1_554     S
V36     V33    10.0   1_545     S
V36     V44    10.0   .     S
V37     V38    10.0   1_554     S
V37     V40    10.0   1_455     S
V37     V42    10.0   .     S
V38     V37    10.0   1_556     S
V38     V39    10.0   1_455     S
V38     V45    10.0   .     S
V39     V38    10.0   1_655     S
V39     V40    10.0   1_556     S
V39     V46    10.0   .     S
V40     V39    10.0   1_554     S
V40     V37    10.0   1_655     S
V40     V43    10.0   .     S
V41     V42    10.0   .     S
V41     V44    10.0   .     S
V42     V43    10.0   .     S
V43     V44    10.0   .     S
V45     V46    10.0   .     S
V45     V48    10.0   .     S
V46     V47    10.0   .     S
V47     V48    10.0   .     S
