data_ssta
_audit_creation_date              2020-02-04
_audit_creation_method            'Pymatgen'
_symmetry_space_group_name_H-M    'P1'
_symmetry_Int_Tables_number       1
loop_
_symmetry_equiv_pos_as_xyz
  x,y,z
_cell_length_a                    96.5685
_cell_length_b                    96.5685
_cell_length_c                    96.5685
_cell_angle_alpha                 90.0
_cell_angle_beta                 90.0
_cell_angle_gamma                 90.0
loop_
_atom_site_label
_atom_site_type_symbol
_atom_site_fract_x
_atom_site_fract_y
_atom_site_fract_z
V1     V     0.375   0.5518   0.1249
V2     V     0.4482   0.625   0.1249
Er3     Er     0.375   0.6982   0.125
Er4     Er     0.3018   0.625   0.125
V5     V     0.625   0.5518   0.1249
V6     V     0.5518   0.625   0.1249
Er7     Er     0.6982   0.625   0.125
Er8     Er     0.625   0.6982   0.125
V9     V     0.375   0.4482   0.1249
V10     V     0.4482   0.375   0.1249
Er11     Er     0.3018   0.375   0.125
Er12     Er     0.375   0.3018   0.125
V13     V     0.5518   0.375   0.1249
V14     V     0.625   0.4482   0.1249
Er15     Er     0.6982   0.375   0.125
Er16     Er     0.625   0.3018   0.125
V17     V     0.125   0.3751   0.9482
V18     V     0.0518   0.3751   0.875
Er19     Er     0.1982   0.375   0.875
Er20     Er     0.125   0.375   0.8018
V21     V     0.0518   0.3751   0.125
V22     V     0.125   0.3751   0.0518
Er23     Er     0.1982   0.375   0.125
Er24     Er     0.125   0.375   0.1982
V25     V     0.875   0.3751   0.9482
V26     V     0.9482   0.3751   0.875
Er27     Er     0.8018   0.375   0.875
Er28     Er     0.875   0.375   0.8018
V29     V     0.9482   0.3751   0.125
V30     V     0.875   0.3751   0.0518
Er31     Er     0.875   0.375   0.1982
Er32     Er     0.8018   0.375   0.125
V33     V     0.8751   0.4482   0.375
V34     V     0.8751   0.375   0.4482
Er35     Er     0.875   0.375   0.3018
Er36     Er     0.875   0.3018   0.375
V37     V     0.8751   0.5518   0.375
V38     V     0.8751   0.625   0.4482
Er39     Er     0.875   0.6982   0.375
Er40     Er     0.875   0.625   0.3018
V41     V     0.8751   0.5518   0.625
V42     V     0.8751   0.625   0.5518
Er43     Er     0.875   0.625   0.6982
Er44     Er     0.875   0.6982   0.625
V45     V     0.8751   0.375   0.5518
V46     V     0.8751   0.4482   0.625
Er47     Er     0.875   0.375   0.6982
Er48     Er     0.875   0.3018   0.625
V49     V     0.125   0.9482   0.6249
V50     V     0.0518   0.875   0.6249
Er51     Er     0.1982   0.875   0.625
Er52     Er     0.125   0.8018   0.625
V53     V     0.875   0.9482   0.6249
V54     V     0.9482   0.875   0.6249
Er55     Er     0.8018   0.875   0.625
Er56     Er     0.875   0.8018   0.625
V57     V     0.125   0.0518   0.6249
V58     V     0.0518   0.125   0.6249
Er59     Er     0.1982   0.125   0.625
Er60     Er     0.125   0.1982   0.625
V61     V     0.9482   0.125   0.6249
V62     V     0.875   0.0518   0.6249
Er63     Er     0.875   0.1982   0.625
Er64     Er     0.8018   0.125   0.625
V65     V     0.5518   0.1249   0.375
V66     V     0.625   0.1249   0.4482
Er67     Er     0.6982   0.125   0.375
Er68     Er     0.625   0.125   0.3018
V69     V     0.5518   0.1249   0.625
V70     V     0.625   0.1249   0.5518
Er71     Er     0.625   0.125   0.6982
Er72     Er     0.6982   0.125   0.625
V73     V     0.4482   0.1249   0.375
V74     V     0.375   0.1249   0.4482
Er75     Er     0.375   0.125   0.3018
Er76     Er     0.3018   0.125   0.375
V77     V     0.375   0.1249   0.5518
V78     V     0.4482   0.1249   0.625
Er79     Er     0.375   0.125   0.6982
Er80     Er     0.3018   0.125   0.625
V81     V     0.3751   0.9482   0.125
V82     V     0.3751   0.875   0.0518
Er83     Er     0.375   0.875   0.1982
Er84     Er     0.375   0.8018   0.125
V85     V     0.3751   0.125   0.0518
V86     V     0.3751   0.0518   0.125
Er87     Er     0.375   0.125   0.1982
Er88     Er     0.375   0.1982   0.125
V89     V     0.3751   0.9482   0.875
V90     V     0.3751   0.875   0.9482
Er91     Er     0.375   0.875   0.8018
Er92     Er     0.375   0.8018   0.875
V93     V     0.3751   0.125   0.9482
V94     V     0.3751   0.0518   0.875
Er95     Er     0.375   0.1982   0.875
Er96     Er     0.375   0.125   0.8018
V97     V     0.5518   0.375   0.8751
V98     V     0.625   0.4482   0.8751
Er99     Er     0.6982   0.375   0.875
Er100     Er     0.625   0.3018   0.875
V101     V     0.375   0.4482   0.8751
V102     V     0.4482   0.375   0.8751
Er103     Er     0.375   0.3018   0.875
Er104     Er     0.3018   0.375   0.875
V105     V     0.5518   0.625   0.8751
V106     V     0.625   0.5518   0.8751
Er107     Er     0.625   0.6982   0.875
Er108     Er     0.6982   0.625   0.875
V109     V     0.375   0.5518   0.8751
V110     V     0.4482   0.625   0.8751
Er111     Er     0.375   0.6982   0.875
Er112     Er     0.3018   0.625   0.875
V113     V     0.9482   0.6249   0.125
V114     V     0.875   0.6249   0.0518
Er115     Er     0.875   0.625   0.1982
Er116     Er     0.8018   0.625   0.125
V117     V     0.9482   0.6249   0.875
V118     V     0.875   0.6249   0.9482
Er119     Er     0.875   0.625   0.8018
Er120     Er     0.8018   0.625   0.875
V121     V     0.0518   0.6249   0.125
V122     V     0.125   0.6249   0.0518
Er123     Er     0.125   0.625   0.1982
Er124     Er     0.1982   0.625   0.125
V125     V     0.125   0.6249   0.9482
V126     V     0.0518   0.6249   0.875
Er127     Er     0.1982   0.625   0.875
Er128     Er     0.125   0.625   0.8018
V129     V     0.6249   0.125   0.9482
V130     V     0.6249   0.0518   0.875
Er131     Er     0.625   0.1982   0.875
Er132     Er     0.625   0.125   0.8018
V133     V     0.6249   0.0518   0.125
V134     V     0.6249   0.125   0.0518
Er135     Er     0.625   0.1982   0.125
Er136     Er     0.625   0.125   0.1982
V137     V     0.6249   0.875   0.9482
V138     V     0.6249   0.9482   0.875
Er139     Er     0.625   0.8018   0.875
Er140     Er     0.625   0.875   0.8018
V141     V     0.6249   0.9482   0.125
V142     V     0.6249   0.875   0.0518
Er143     Er     0.625   0.875   0.1982
Er144     Er     0.625   0.8018   0.125
V145     V     0.375   0.8751   0.5518
V146     V     0.4482   0.8751   0.625
Er147     Er     0.375   0.875   0.6982
Er148     Er     0.3018   0.875   0.625
V149     V     0.625   0.8751   0.5518
V150     V     0.5518   0.8751   0.625
Er151     Er     0.6982   0.875   0.625
Er152     Er     0.625   0.875   0.6982
V153     V     0.375   0.8751   0.4482
V154     V     0.4482   0.8751   0.375
Er155     Er     0.3018   0.875   0.375
Er156     Er     0.375   0.875   0.3018
V157     V     0.5518   0.8751   0.375
V158     V     0.625   0.8751   0.4482
Er159     Er     0.6982   0.875   0.375
Er160     Er     0.625   0.875   0.3018
V161     V     0.1249   0.375   0.5518
V162     V     0.1249   0.4482   0.625
Er163     Er     0.125   0.375   0.6982
Er164     Er     0.125   0.3018   0.625
V165     V     0.1249   0.625   0.5518
V166     V     0.1249   0.5518   0.625
Er167     Er     0.125   0.6982   0.625
Er168     Er     0.125   0.625   0.6982
V169     V     0.1249   0.375   0.4482
V170     V     0.1249   0.4482   0.375
Er171     Er     0.125   0.3018   0.375
Er172     Er     0.125   0.375   0.3018
V173     V     0.1249   0.5518   0.375
V174     V     0.1249   0.625   0.4482
Er175     Er     0.125   0.6982   0.375
Er176     Er     0.125   0.625   0.3018
V177     V     0.9482   0.125   0.3751
V178     V     0.875   0.0518   0.3751
Er179     Er     0.875   0.1982   0.375
Er180     Er     0.8018   0.125   0.375
V181     V     0.9482   0.875   0.3751
V182     V     0.875   0.9482   0.3751
Er183     Er     0.875   0.8018   0.375
Er184     Er     0.8018   0.875   0.375
V185     V     0.0518   0.125   0.3751
V186     V     0.125   0.0518   0.3751
Er187     Er     0.125   0.1982   0.375
Er188     Er     0.1982   0.125   0.375
V189     V     0.125   0.9482   0.3751
V190     V     0.0518   0.875   0.3751
Er191     Er     0.1982   0.875   0.375
Er192     Er     0.125   0.8018   0.375
loop_
_geom_bond_atom_site_label_1
_geom_bond_atom_site_label_2
_geom_bond_distance
_geom_bond_site_symmetry_2
_ccdc_geom_bond_type
V1     V2    10.0   .     S
V1     Er4    10.0   .     S
V1     V9    10.001   .     S
V2     Er3    10.0   .     S
V2     V6    10.001   .     S
Er3     Er4    10.0   .     S
Er3     Er84    10.001   .     S
Er4     Er124    10.001   .     S
V5     V6    10.0   .     S
V5     Er7    10.0   .     S
V5     V14    10.001   .     S
V6     Er8    10.0   .     S
Er7     Er8    10.0   .     S
Er7     Er116    10.001   .     S
Er8     Er144    10.001   .     S
V9     V10    10.0   .     S
V9     Er11    10.0   .     S
V10     Er12    10.0   .     S
V10     V13    10.001   .     S
Er11     Er12    10.0   .     S
Er11     Er23    10.001   .     S
Er12     Er88    10.001   .     S
V13     V14    10.0   .     S
V13     Er16    10.0   .     S
V14     Er15    10.0   .     S
Er15     Er16    10.0   .     S
Er15     Er32    10.001   .     S
Er16     Er135    10.001   .     S
V17     V18    10.0   .     S
V17     Er19    10.0   .     S
V17     V22    10.001   1_556     S
V18     Er20    10.0   .     S
V18     V26    10.001   1_455     S
Er19     Er20    10.0   .     S
Er19     Er104    10.001   .     S
Er20     Er163    10.001   .     S
V21     V22    10.0   .     S
V21     Er24    10.0   .     S
V21     V29    10.001   1_455     S
V22     Er23    10.0   .     S
V22     V17    10.001   1_554     S
Er23     Er24    10.0   .     S
Er24     Er172    10.001   .     S
V25     V26    10.0   .     S
V25     Er27    10.0   .     S
V25     V30    10.001   1_556     S
V26     V18    10.001   1_655     S
V26     Er28    10.0   .     S
Er27     Er28    10.0   .     S
Er27     Er99    10.001   .     S
Er28     Er47    10.001   .     S
V29     V21    10.001   1_655     S
V29     V30    10.0   .     S
V29     Er31    10.0   .     S
V30     Er32    10.0   .     S
V30     V25    10.001   1_554     S
Er31     Er32    10.0   .     S
Er31     Er35    10.001   .     S
V33     V34    10.0   .     S
V33     Er35    10.0   .     S
V33     V37    10.001   .     S
V34     Er36    10.0   .     S
V34     V45    10.001   .     S
Er35     Er36    10.0   .     S
Er36     Er179    10.001   .     S
V37     V38    10.0   .     S
V37     Er40    10.0   .     S
V38     Er39    10.0   .     S
V38     V42    10.001   .     S
Er39     Er40    10.0   .     S
Er39     Er183    10.001   .     S
Er40     Er115    10.001   .     S
V41     V42    10.0   .     S
V41     Er43    10.0   .     S
V41     V46    10.001   .     S
V42     Er44    10.0   .     S
Er43     Er44    10.0   .     S
Er43     Er119    10.001   .     S
Er44     Er56    10.001   .     S
V45     V46    10.0   .     S
V45     Er48    10.0   .     S
V46     Er47    10.0   .     S
Er47     Er48    10.0   .     S
Er48     Er63    10.001   .     S
V49     V50    10.0   .     S
V49     Er51    10.0   .     S
V49     V57    10.001   1_565     S
V50     Er52    10.0   .     S
V50     V54    10.001   1_455     S
Er51     Er52    10.0   .     S
Er51     Er148    10.001   .     S
Er52     Er167    10.001   .     S
V53     V54    10.0   .     S
V53     Er55    10.0   .     S
V53     V62    10.001   1_565     S
V54     V50    10.001   1_655     S
V54     Er56    10.0   .     S
Er55     Er56    10.0   .     S
Er55     Er151    10.001   .     S
V57     V58    10.0   .     S
V57     Er59    10.0   .     S
V57     V49    10.001   1_545     S
V58     Er60    10.0   .     S
V58     V61    10.001   1_455     S
Er59     Er60    10.0   .     S
Er59     Er80    10.001   .     S
Er60     Er164    10.001   .     S
V61     V58    10.001   1_655     S
V61     V62    10.0   .     S
V61     Er63    10.0   .     S
V62     Er64    10.0   .     S
V62     V53    10.001   1_545     S
Er63     Er64    10.0   .     S
Er64     Er72    10.001   .     S
V65     V66    10.0   .     S
V65     Er68    10.0   .     S
V65     V73    10.001   .     S
V66     Er67    10.0   .     S
V66     V70    10.001   .     S
Er67     Er68    10.0   .     S
Er67     Er180    10.001   .     S
Er68     Er136    10.001   .     S
V69     V70    10.0   .     S
V69     Er71    10.0   .     S
V69     V78    10.001   .     S
V70     Er72    10.0   .     S
Er71     Er72    10.0   .     S
Er71     Er132    10.001   .     S
V73     V74    10.0   .     S
V73     Er75    10.0   .     S
V74     Er76    10.0   .     S
V74     V77    10.001   .     S
Er75     Er76    10.0   .     S
Er75     Er87    10.001   .     S
Er76     Er188    10.001   .     S
V77     V78    10.0   .     S
V77     Er80    10.0   .     S
V78     Er79    10.0   .     S
Er79     Er80    10.0   .     S
Er79     Er96    10.001   .     S
V81     V82    10.0   .     S
V81     Er83    10.0   .     S
V81     V86    10.001   1_565     S
V82     Er84    10.0   .     S
V82     V90    10.001   1_554     S
Er83     Er84    10.0   .     S
Er83     Er156    10.001   .     S
V85     V86    10.0   .     S
V85     Er88    10.0   .     S
V85     V93    10.001   1_554     S
V86     Er87    10.0   .     S
V86     V81    10.001   1_545     S
Er87     Er88    10.0   .     S
V89     V90    10.0   .     S
V89     Er91    10.0   .     S
V89     V94    10.001   1_565     S
V90     V82    10.001   1_556     S
V90     Er92    10.0   .     S
Er91     Er92    10.0   .     S
Er91     Er147    10.001   .     S
Er92     Er111    10.001   .     S
V93     V85    10.001   1_556     S
V93     V94    10.0   .     S
V93     Er95    10.0   .     S
V94     Er96    10.0   .     S
V94     V89    10.001   1_545     S
Er95     Er96    10.0   .     S
Er95     Er103    10.001   .     S
V97     V98    10.0   .     S
V97     Er100    10.0   .     S
V97     V102    10.001   .     S
V98     Er99    10.0   .     S
V98     V106    10.001   .     S
Er99     Er100    10.0   .     S
Er100     Er131    10.001   .     S
V101     V102    10.0   .     S
V101     Er104    10.0   .     S
V101     V109    10.001   .     S
V102     Er103    10.0   .     S
Er103     Er104    10.0   .     S
V105     V106    10.0   .     S
V105     Er107    10.0   .     S
V105     V110    10.001   .     S
V106     Er108    10.0   .     S
Er107     Er108    10.0   .     S
Er107     Er139    10.001   .     S
Er108     Er120    10.001   .     S
V109     V110    10.0   .     S
V109     Er112    10.0   .     S
V110     Er111    10.0   .     S
Er111     Er112    10.0   .     S
Er112     Er127    10.001   .     S
V113     V114    10.0   .     S
V113     Er115    10.0   .     S
V113     V121    10.001   1_655     S
V114     Er116    10.0   .     S
V114     V118    10.001   1_554     S
Er115     Er116    10.0   .     S
V117     V118    10.0   .     S
V117     Er119    10.0   .     S
V117     V126    10.001   1_655     S
V118     V114    10.001   1_556     S
V118     Er120    10.0   .     S
Er119     Er120    10.0   .     S
V121     V122    10.0   .     S
V121     Er123    10.0   .     S
V121     V113    10.001   1_455     S
V122     Er124    10.0   .     S
V122     V125    10.001   1_554     S
Er123     Er124    10.0   .     S
Er123     Er176    10.001   .     S
V125     V122    10.001   1_556     S
V125     V126    10.0   .     S
V125     Er127    10.0   .     S
V126     Er128    10.0   .     S
V126     V117    10.001   1_455     S
Er127     Er128    10.0   .     S
Er128     Er168    10.001   .     S
V129     V130    10.0   .     S
V129     Er131    10.0   .     S
V129     V134    10.001   1_556     S
V130     Er132    10.0   .     S
V130     V138    10.001   1_545     S
Er131     Er132    10.0   .     S
V133     V134    10.0   .     S
V133     Er136    10.0   .     S
V133     V141    10.001   1_545     S
V134     Er135    10.0   .     S
V134     V129    10.001   1_554     S
Er135     Er136    10.0   .     S
V137     V138    10.0   .     S
V137     Er139    10.0   .     S
V137     V142    10.001   1_556     S
V138     V130    10.001   1_565     S
V138     Er140    10.0   .     S
Er139     Er140    10.0   .     S
Er140     Er152    10.001   .     S
V141     V133    10.001   1_565     S
V141     V142    10.0   .     S
V141     Er143    10.0   .     S
V142     Er144    10.0   .     S
V142     V137    10.001   1_554     S
Er143     Er144    10.0   .     S
Er143     Er160    10.001   .     S
V145     V146    10.0   .     S
V145     Er148    10.0   .     S
V145     V153    10.001   .     S
V146     Er147    10.0   .     S
V146     V150    10.001   .     S
Er147     Er148    10.0   .     S
V149     V150    10.0   .     S
V149     Er151    10.0   .     S
V149     V158    10.001   .     S
V150     Er152    10.0   .     S
Er151     Er152    10.0   .     S
V153     V154    10.0   .     S
V153     Er155    10.0   .     S
V154     Er156    10.0   .     S
V154     V157    10.001   .     S
Er155     Er156    10.0   .     S
Er155     Er191    10.001   .     S
V157     V158    10.0   .     S
V157     Er160    10.0   .     S
V158     Er159    10.0   .     S
Er159     Er160    10.0   .     S
Er159     Er184    10.001   .     S
V161     V162    10.0   .     S
V161     Er164    10.0   .     S
V161     V169    10.001   .     S
V162     Er163    10.0   .     S
V162     V166    10.001   .     S
Er163     Er164    10.0   .     S
V165     V166    10.0   .     S
V165     Er167    10.0   .     S
V165     V174    10.001   .     S
V166     Er168    10.0   .     S
Er167     Er168    10.0   .     S
V169     V170    10.0   .     S
V169     Er171    10.0   .     S
V170     Er172    10.0   .     S
V170     V173    10.001   .     S
Er171     Er172    10.0   .     S
Er171     Er187    10.001   .     S
V173     V174    10.0   .     S
V173     Er176    10.0   .     S
V174     Er175    10.0   .     S
Er175     Er176    10.0   .     S
Er175     Er192    10.001   .     S
V177     V178    10.0   .     S
V177     Er179    10.0   .     S
V177     V185    10.001   1_655     S
V178     Er180    10.0   .     S
V178     V182    10.001   1_545     S
Er179     Er180    10.0   .     S
V181     V182    10.0   .     S
V181     Er183    10.0   .     S
V181     V190    10.001   1_655     S
V182     V178    10.001   1_565     S
V182     Er184    10.0   .     S
Er183     Er184    10.0   .     S
V185     V186    10.0   .     S
V185     Er187    10.0   .     S
V185     V177    10.001   1_455     S
V186     Er188    10.0   .     S
V186     V189    10.001   1_545     S
Er187     Er188    10.0   .     S
V189     V186    10.001   1_565     S
V189     V190    10.0   .     S
V189     Er191    10.0   .     S
V190     Er192    10.0   .     S
V190     V181    10.001   1_455     S
Er191     Er192    10.0   .     S
