data_sste
_audit_creation_date              2020-02-04
_audit_creation_method            'Pymatgen'
_symmetry_space_group_name_H-M    'P1'
_symmetry_Int_Tables_number       1
loop_
_symmetry_equiv_pos_as_xyz
  x,y,z
_cell_length_a                    56.5685
_cell_length_b                    56.5685
_cell_length_c                    56.5685
_cell_angle_alpha                 90.0
_cell_angle_beta                 90.0
_cell_angle_gamma                 90.0
loop_
_atom_site_label
_atom_site_type_symbol
_atom_site_fract_x
_atom_site_fract_y
_atom_site_fract_z
Er1     Er     0.125   0.75   0.375
Er2     Er     0.75   0.125   0.625
Er3     Er     0.375   0.125   0.75
Er4     Er     0.125   0.625   0.75
Er5     Er     0.625   0.75   0.125
Er6     Er     0.75   0.375   0.125
Er7     Er     0.125   0.75   0.625
Er8     Er     0.75   0.125   0.375
Er9     Er     0.625   0.125   0.75
Er10     Er     0.125   0.375   0.75
Er11     Er     0.375   0.75   0.125
Er12     Er     0.75   0.625   0.125
Er13     Er     0.375   0.75   0.875
Er14     Er     0.75   0.625   0.875
Er15     Er     0.875   0.375   0.75
Er16     Er     0.625   0.875   0.75
Er17     Er     0.75   0.875   0.375
Er18     Er     0.875   0.75   0.625
Er19     Er     0.625   0.75   0.875
Er20     Er     0.75   0.375   0.875
Er21     Er     0.875   0.625   0.75
Er22     Er     0.375   0.875   0.75
Er23     Er     0.75   0.875   0.625
V24     V     0.875   0.625   0.5
V25     V     0.875   0.5   0.625
V26     V     0.625   0.125   0.5
V27     V     0.5   0.125   0.625
V28     V     0.125   0.5   0.625
V29     V     0.125   0.625   0.5
V30     V     0.5   0.875   0.625
V31     V     0.625   0.875   0.5
V32     V     0.625   0.5   0.125
V33     V     0.5   0.625   0.125
V34     V     0.5   0.625   0.875
V35     V     0.625   0.5   0.875
Er36     Er     0.625   0.125   0.25
Er37     Er     0.625   0.875   0.25
V38     V     0.625   0.0   0.875
V39     V     0.625   0.875   0.0
Er40     Er     0.625   0.25   0.875
V41     V     0.625   0.125   0.0
V42     V     0.625   0.0   0.125
Er43     Er     0.625   0.25   0.125
V44     V     0.375   0.875   0.0
V45     V     0.375   0.0   0.875
Er46     Er     0.375   0.875   0.25
V47     V     0.375   0.0   0.125
V48     V     0.375   0.125   0.0
Er49     Er     0.375   0.25   0.875
Er50     Er     0.125   0.625   0.25
Er51     Er     0.875   0.625   0.25
V52     V     0.0   0.625   0.875
V53     V     0.875   0.625   0.0
Er54     Er     0.25   0.625   0.875
V55     V     0.125   0.625   0.0
V56     V     0.0   0.625   0.125
Er57     Er     0.25   0.625   0.125
V58     V     0.875   0.375   0.0
V59     V     0.0   0.375   0.875
V60     V     0.0   0.375   0.125
Er61     Er     0.875   0.375   0.25
V62     V     0.125   0.375   0.0
Er63     Er     0.25   0.375   0.875
Er64     Er     0.125   0.25   0.625
Er65     Er     0.875   0.25   0.625
V66     V     0.0   0.875   0.625
V67     V     0.875   0.0   0.625
Er68     Er     0.25   0.875   0.625
V69     V     0.125   0.0   0.625
V70     V     0.0   0.125   0.625
Er71     Er     0.25   0.125   0.625
V72     V     0.875   0.0   0.375
V73     V     0.0   0.875   0.375
V74     V     0.0   0.125   0.375
Er75     Er     0.875   0.25   0.375
V76     V     0.125   0.0   0.375
Er77     Er     0.25   0.875   0.375
Er78     Er     0.125   0.25   0.375
Er79     Er     0.25   0.125   0.375
V80     V     0.375   0.875   0.5
V81     V     0.125   0.375   0.5
V82     V     0.375   0.125   0.5
V83     V     0.875   0.375   0.5
Er84     Er     0.125   0.375   0.25
Er85     Er     0.25   0.375   0.125
V86     V     0.375   0.5   0.125
V87     V     0.875   0.5   0.375
V88     V     0.375   0.5   0.875
V89     V     0.125   0.5   0.375
Er90     Er     0.375   0.125   0.25
Er91     Er     0.375   0.25   0.125
V92     V     0.5   0.375   0.875
V93     V     0.5   0.125   0.375
V94     V     0.5   0.375   0.125
V95     V     0.5   0.875   0.375
Er96     Er     0.875   0.75   0.375
loop_
_geom_bond_atom_site_label_1
_geom_bond_atom_site_label_2
_geom_bond_distance
_geom_bond_site_symmetry_2
_ccdc_geom_bond_type
Er1     V73    10.0   .     S
Er1     Er77    10.0   .     S
Er1     V29    10.0   .     S
Er1     Er50    10.0   .     S
Er2     V26    10.0   .     S
Er2     V67    10.0   .     S
Er2     Er65    10.0   .     S
Er2     Er9    10.0   .     S
Er3     V45    10.0   .     S
Er3     Er49    10.0   .     S
Er3     V27    10.0   .     S
Er3     Er71    10.0   .     S
Er4     V28    10.0   .     S
Er4     V52    10.0   .     S
Er4     Er54    10.0   .     S
Er4     Er7    10.0   .     S
Er5     V33    10.0   .     S
Er5     V39    10.0   .     S
Er5     Er37    10.0   .     S
Er5     Er12    10.0   .     S
Er6     V58    10.0   .     S
Er6     Er61    10.0   .     S
Er6     V32    10.0   .     S
Er6     Er43    10.0   .     S
Er7     V29    10.0   .     S
Er7     V66    10.0   .     S
Er7     Er68    10.0   .     S
Er8     V72    10.0   .     S
Er8     Er75    10.0   .     S
Er8     V26    10.0   .     S
Er8     Er36    10.0   .     S
Er9     V27    10.0   .     S
Er9     V38    10.0   .     S
Er9     Er40    10.0   .     S
Er10     V59    10.0   .     S
Er10     Er63    10.0   .     S
Er10     V28    10.0   .     S
Er10     Er64    10.0   .     S
Er11     V44    10.0   .     S
Er11     Er46    10.0   .     S
Er11     V33    10.0   .     S
Er11     Er57    10.0   .     S
Er12     V32    10.0   .     S
Er12     V53    10.0   .     S
Er12     Er51    10.0   .     S
Er13     V44    10.0   1_556     S
Er13     V34    10.0   .     S
Er13     Er54    10.0   .     S
Er13     Er22    10.0   .     S
Er14     V53    10.0   1_556     S
Er14     V35    10.0   .     S
Er14     Er19    10.0   .     S
Er14     Er21    10.0   .     S
Er15     V59    10.0   1_655     S
Er15     V25    10.0   .     S
Er15     Er65    10.0   .     S
Er15     Er20    10.0   .     S
Er16     V38    10.0   1_565     S
Er16     V30    10.0   .     S
Er16     Er23    10.0   .     S
Er16     Er19    10.0   .     S
Er17     V72    10.0   1_565     S
Er17     V31    10.0   .     S
Er17     Er37    10.0   .     S
Er17     Er96    10.0   .     S
Er18     V66    10.0   1_655     S
Er18     V24    10.0   .     S
Er18     Er21    10.0   .     S
Er18     Er23    10.0   .     S
Er19     V39    10.0   1_556     S
Er19     V34    10.0   .     S
Er20     V58    10.0   1_556     S
Er20     V35    10.0   .     S
Er20     Er40    10.0   .     S
Er21     V52    10.0   1_655     S
Er21     V25    10.0   .     S
Er22     V45    10.0   1_565     S
Er22     V30    10.0   .     S
Er22     Er68    10.0   .     S
Er23     V67    10.0   1_565     S
Er23     V31    10.0   .     S
V24     V87    10.0   .     S
V24     V25    10.0   .     S
V24     Er96    10.0   .     S
V25     V83    10.0   .     S
V26     V93    10.0   .     S
V26     V27    10.0   .     S
V27     V82    10.0   .     S
V28     V81    10.0   .     S
V28     V29    10.0   .     S
V29     V89    10.0   .     S
V30     V80    10.0   .     S
V30     V31    10.0   .     S
V31     V95    10.0   .     S
V32     V94    10.0   .     S
V32     V33    10.0   .     S
V33     V86    10.0   .     S
V34     V88    10.0   .     S
V34     V35    10.0   .     S
V35     V92    10.0   .     S
Er36     V93    10.0   .     S
Er36     V42    10.0   .     S
Er36     Er43    10.0   .     S
Er37     V95    10.0   .     S
Er37     V42    10.0   1_565     S
V38     Er16    10.0   1_545     S
V38     V39    10.0   1_546     S
V38     V41    10.0   1_556     S
V39     Er19    10.0   1_554     S
V39     V38    10.0   1_564     S
V39     V42    10.0   1_565     S
Er40     V92    10.0   .     S
Er40     V41    10.0   1_556     S
V41     Er40    10.0   1_554     S
V41     V38    10.0   1_554     S
V41     Er43    10.0   .     S
V41     V42    10.0   .     S
V42     V39    10.0   1_545     S
V42     Er37    10.0   1_545     S
Er43     V94    10.0   .     S
V44     Er13    10.0   1_554     S
V44     V45    10.0   1_564     S
V44     V47    10.0   1_565     S
V45     Er22    10.0   1_545     S
V45     V44    10.0   1_546     S
V45     V48    10.0   1_556     S
Er46     V47    10.0   1_565     S
Er46     Er77    10.0   .     S
Er46     V95    10.0   .     S
V47     Er46    10.0   1_545     S
V47     V44    10.0   1_545     S
V47     Er90    10.0   .     S
V47     V48    10.0   .     S
V48     V45    10.0   1_554     S
V48     Er49    10.0   1_554     S
V48     Er91    10.0   .     S
Er49     V48    10.0   1_556     S
Er49     V92    10.0   .     S
Er49     Er63    10.0   .     S
Er50     V89    10.0   .     S
Er50     V56    10.0   .     S
Er50     Er57    10.0   .     S
Er51     V87    10.0   .     S
Er51     V56    10.0   1_655     S
Er51     Er96    10.0   .     S
V52     Er21    10.0   1_455     S
V52     V53    10.0   1_456     S
V52     V55    10.0   1_556     S
V53     Er14    10.0   1_554     S
V53     V52    10.0   1_654     S
V53     V56    10.0   1_655     S
Er54     V88    10.0   .     S
Er54     V55    10.0   1_556     S
V55     Er54    10.0   1_554     S
V55     V52    10.0   1_554     S
V55     Er57    10.0   .     S
V55     V56    10.0   .     S
V56     V53    10.0   1_455     S
V56     Er51    10.0   1_455     S
Er57     V86    10.0   .     S
V58     Er20    10.0   1_554     S
V58     V59    10.0   1_654     S
V58     V60    10.0   1_655     S
V59     Er15    10.0   1_455     S
V59     V58    10.0   1_456     S
V59     V62    10.0   1_556     S
V60     Er61    10.0   1_455     S
V60     V58    10.0   1_455     S
V60     Er84    10.0   .     S
V60     V62    10.0   .     S
Er61     V60    10.0   1_655     S
Er61     V87    10.0   .     S
Er61     Er75    10.0   .     S
V62     V59    10.0   1_554     S
V62     Er63    10.0   1_554     S
V62     Er85    10.0   .     S
Er63     V62    10.0   1_556     S
Er63     V88    10.0   .     S
Er64     V81    10.0   .     S
Er64     V70    10.0   .     S
Er64     Er71    10.0   .     S
Er65     V83    10.0   .     S
Er65     V70    10.0   1_655     S
V66     Er18    10.0   1_455     S
V66     V67    10.0   1_465     S
V66     V69    10.0   1_565     S
V67     Er23    10.0   1_545     S
V67     V66    10.0   1_645     S
V67     V70    10.0   1_655     S
Er68     V80    10.0   .     S
Er68     V69    10.0   1_565     S
V69     Er68    10.0   1_545     S
V69     V66    10.0   1_545     S
V69     Er71    10.0   .     S
V69     V70    10.0   .     S
V70     V67    10.0   1_455     S
V70     Er65    10.0   1_455     S
Er71     V82    10.0   .     S
V72     Er17    10.0   1_545     S
V72     V73    10.0   1_645     S
V72     V74    10.0   1_655     S
V73     V72    10.0   1_465     S
V73     V76    10.0   1_565     S
V73     Er96    10.0   1_455     S
V74     Er75    10.0   1_455     S
V74     V72    10.0   1_455     S
V74     Er78    10.0   .     S
V74     V76    10.0   .     S
Er75     V74    10.0   1_655     S
Er75     V83    10.0   .     S
V76     V73    10.0   1_545     S
V76     Er77    10.0   1_545     S
V76     Er79    10.0   .     S
Er77     V76    10.0   1_565     S
Er77     V80    10.0   .     S
Er78     V81    10.0   .     S
Er78     Er84    10.0   .     S
Er78     Er79    10.0   .     S
Er79     V82    10.0   .     S
Er79     Er90    10.0   .     S
V80     V95    10.0   .     S
V81     V89    10.0   .     S
V82     V93    10.0   .     S
V83     V87    10.0   .     S
Er84     V89    10.0   .     S
Er84     Er85    10.0   .     S
Er85     V86    10.0   .     S
Er85     Er91    10.0   .     S
V86     V94    10.0   .     S
V88     V92    10.0   .     S
Er90     V93    10.0   .     S
Er90     Er91    10.0   .     S
Er91     V94    10.0   .     S
Er96     V73    10.0   1_655     S
