data_swb
_audit_creation_date              2020-02-04
_audit_creation_method            'Pymatgen'
_symmetry_space_group_name_H-M    'P1'
_symmetry_Int_Tables_number       1
loop_
_symmetry_equiv_pos_as_xyz
  x,y,z
_cell_length_a                    37.4493
_cell_length_b                    37.4493
_cell_length_c                    37.4493
_cell_angle_alpha                 90.0
_cell_angle_beta                 90.0
_cell_angle_gamma                 90.0
loop_
_atom_site_label
_atom_site_type_symbol
_atom_site_fract_x
_atom_site_fract_y
_atom_site_fract_z
V1     V     0.0551   0.8402   0.5841
V2     V     0.8402   0.9159   0.4449
V3     V     0.1598   0.0841   0.5551
V4     V     0.9159   0.0551   0.6598
V5     V     0.0841   0.9449   0.3402
V6     V     0.9449   0.1598   0.4159
V7     V     0.4449   0.8402   0.9159
V8     V     0.5841   0.0551   0.8402
V9     V     0.5551   0.1598   0.0841
V10     V     0.6598   0.9159   0.0551
V11     V     0.3402   0.0841   0.9449
V12     V     0.4159   0.9449   0.1598
V13     V     0.8402   0.0551   0.9159
V14     V     0.9159   0.8402   0.0551
V15     V     0.0551   0.9159   0.8402
V16     V     0.1598   0.9449   0.0841
V17     V     0.0841   0.1598   0.9449
V18     V     0.9449   0.0841   0.1598
V19     V     0.8402   0.5841   0.0551
V20     V     0.9159   0.4449   0.8402
V21     V     0.0841   0.5551   0.1598
V22     V     0.0551   0.6598   0.9159
V23     V     0.9449   0.3402   0.0841
V24     V     0.1598   0.4159   0.9449
V25     V     0.4449   0.5841   0.8402
V26     V     0.6598   0.4449   0.9159
V27     V     0.5551   0.4159   0.1598
V28     V     0.3402   0.5551   0.0841
V29     V     0.5841   0.6598   0.0551
V30     V     0.4159   0.3402   0.9449
V31     V     0.8402   0.4449   0.5841
V32     V     0.9159   0.6598   0.4449
V33     V     0.1598   0.5551   0.4159
V34     V     0.0841   0.3402   0.5551
V35     V     0.0551   0.5841   0.6598
V36     V     0.9449   0.4159   0.3402
V37     V     0.4449   0.6598   0.5841
V38     V     0.6598   0.5841   0.4449
V39     V     0.5841   0.4449   0.6598
V40     V     0.5551   0.3402   0.4159
V41     V     0.4159   0.5551   0.3402
V42     V     0.3402   0.4159   0.5551
V43     V     0.5841   0.8402   0.4449
V44     V     0.4449   0.9159   0.6598
V45     V     0.4159   0.1598   0.5551
V46     V     0.5551   0.0841   0.3402
V47     V     0.6598   0.0551   0.5841
V48     V     0.3402   0.9449   0.4159
loop_
_geom_bond_atom_site_label_1
_geom_bond_atom_site_label_2
_geom_bond_distance
_geom_bond_site_symmetry_2
_ccdc_geom_bond_type
V1     V15    10.0   .     S
V1     V4    10.0   1_465     S
V1     V3    10.0   1_565     S
V1     V2    10.0   1_455     S
V1     V5    10.0   .     S
V1     V32    10.0   1_455     S
V1     V35    10.0   .     S
V2     V32    10.0   .     S
V2     V4    10.0   1_565     S
V2     V6    10.0   1_565     S
V2     V5    10.0   1_655     S
V2     V1    10.0   1_655     S
V2     V47    10.0   1_565     S
V2     V43    10.0   .     S
V3     V34    10.0   .     S
V3     V4    10.0   1_455     S
V3     V1    10.0   1_545     S
V3     V6    10.0   1_455     S
V3     V5    10.0   1_545     S
V3     V48    10.0   1_545     S
V3     V45    10.0   .     S
V4     V47    10.0   .     S
V4     V1    10.0   1_645     S
V4     V3    10.0   1_655     S
V4     V6    10.0   .     S
V4     V2    10.0   1_545     S
V4     V13    10.0   .     S
V4     V15    10.0   1_645     S
V5     V48    10.0   .     S
V5     V6    10.0   1_465     S
V5     V2    10.0   1_455     S
V5     V3    10.0   1_565     S
V5     V16    10.0   .     S
V5     V18    10.0   1_465     S
V6     V18    10.0   .     S
V6     V3    10.0   1_655     S
V6     V2    10.0   1_545     S
V6     V5    10.0   1_645     S
V6     V36    10.0   .     S
V6     V34    10.0   1_655     S
V7     V44    10.0   .     S
V7     V10    10.0   1_556     S
V7     V12    10.0   1_556     S
V7     V11    10.0   1_565     S
V7     V8    10.0   1_565     S
V7     V25    10.0   .     S
V7     V29    10.0   1_556     S
V8     V13    10.0   .     S
V8     V7    10.0   1_545     S
V8     V11    10.0   .     S
V8     V10    10.0   1_546     S
V8     V9    10.0   1_556     S
V8     V44    10.0   1_545     S
V8     V47    10.0   .     S
V9     V46    10.0   .     S
V9     V12    10.0   1_545     S
V9     V11    10.0   1_554     S
V9     V10    10.0   1_545     S
V9     V8    10.0   1_554     S
V9     V30    10.0   1_554     S
V9     V27    10.0   .     S
V10     V29    10.0   .     S
V10     V12    10.0   .     S
V10     V7    10.0   1_554     S
V10     V8    10.0   1_564     S
V10     V9    10.0   1_565     S
V10     V14    10.0   .     S
V10     V13    10.0   1_564     S
V11     V30    10.0   .     S
V11     V12    10.0   1_546     S
V11     V7    10.0   1_545     S
V11     V9    10.0   1_556     S
V11     V17    10.0   .     S
V11     V16    10.0   1_546     S
V12     V16    10.0   .     S
V12     V9    10.0   1_565     S
V12     V7    10.0   1_554     S
V12     V11    10.0   1_564     S
V12     V48    10.0   .     S
V12     V46    10.0   1_565     S
V13     V14    10.0   1_546     S
V13     V18    10.0   1_556     S
V13     V17    10.0   1_655     S
V13     V15    10.0   1_645     S
V13     V10    10.0   1_546     S
V14     V13    10.0   1_564     S
V14     V18    10.0   1_565     S
V14     V15    10.0   1_654     S
V14     V16    10.0   1_655     S
V14     V19    10.0   .     S
V14     V22    10.0   1_654     S
V15     V22    10.0   .     S
V15     V14    10.0   1_456     S
V15     V16    10.0   1_556     S
V15     V13    10.0   1_465     S
V15     V17    10.0   1_565     S
V15     V4    10.0   1_465     S
V16     V18    10.0   1_465     S
V16     V14    10.0   1_455     S
V16     V17    10.0   1_564     S
V16     V15    10.0   1_554     S
V16     V11    10.0   1_564     S
V17     V16    10.0   1_546     S
V17     V18    10.0   1_456     S
V17     V13    10.0   1_455     S
V17     V15    10.0   1_545     S
V17     V24    10.0   .     S
V17     V23    10.0   1_456     S
V18     V23    10.0   .     S
V18     V13    10.0   1_554     S
V18     V16    10.0   1_645     S
V18     V14    10.0   1_545     S
V18     V17    10.0   1_654     S
V18     V5    10.0   1_645     S
V19     V22    10.0   1_654     S
V19     V21    10.0   1_655     S
V19     V20    10.0   1_554     S
V19     V23    10.0   .     S
V19     V26    10.0   1_554     S
V19     V29    10.0   .     S
V20     V26    10.0   .     S
V20     V22    10.0   1_655     S
V20     V24    10.0   1_655     S
V20     V23    10.0   1_556     S
V20     V19    10.0   1_556     S
V20     V31    10.0   .     S
V20     V35    10.0   1_655     S
V21     V28    10.0   .     S
V21     V22    10.0   1_554     S
V21     V19    10.0   1_455     S
V21     V24    10.0   1_554     S
V21     V23    10.0   1_455     S
V21     V36    10.0   1_455     S
V21     V33    10.0   .     S
V22     V35    10.0   .     S
V22     V19    10.0   1_456     S
V22     V21    10.0   1_556     S
V22     V24    10.0   .     S
V22     V20    10.0   1_455     S
V22     V14    10.0   1_456     S
V23     V36    10.0   .     S
V23     V24    10.0   1_654     S
V23     V20    10.0   1_554     S
V23     V21    10.0   1_655     S
V23     V17    10.0   1_654     S
V24     V21    10.0   1_556     S
V24     V20    10.0   1_455     S
V24     V23    10.0   1_456     S
V24     V30    10.0   .     S
V24     V28    10.0   1_556     S
V25     V29    10.0   1_556     S
V25     V28    10.0   1_556     S
V25     V26    10.0   .     S
V25     V30    10.0   .     S
V25     V37    10.0   .     S
V25     V39    10.0   .     S
V26     V19    10.0   1_556     S
V26     V39    10.0   .     S
V26     V29    10.0   1_556     S
V26     V27    10.0   1_556     S
V26     V30    10.0   .     S
V27     V26    10.0   1_554     S
V27     V28    10.0   .     S
V27     V29    10.0   .     S
V27     V30    10.0   1_554     S
V27     V40    10.0   .     S
V27     V41    10.0   .     S
V28     V41    10.0   .     S
V28     V29    10.0   .     S
V28     V25    10.0   1_554     S
V28     V30    10.0   1_554     S
V28     V24    10.0   1_554     S
V29     V26    10.0   1_554     S
V29     V25    10.0   1_554     S
V29     V7    10.0   1_554     S
V30     V9    10.0   1_556     S
V30     V27    10.0   1_556     S
V30     V28    10.0   1_556     S
V31     V35    10.0   1_655     S
V31     V34    10.0   1_655     S
V31     V32    10.0   .     S
V31     V36    10.0   .     S
V31     V39    10.0   .     S
V31     V38    10.0   .     S
V32     V1    10.0   1_655     S
V32     V38    10.0   .     S
V32     V35    10.0   1_655     S
V32     V33    10.0   1_655     S
V32     V36    10.0   .     S
V33     V32    10.0   1_455     S
V33     V34    10.0   .     S
V33     V35    10.0   .     S
V33     V36    10.0   1_455     S
V33     V41    10.0   .     S
V33     V42    10.0   .     S
V34     V42    10.0   .     S
V34     V31    10.0   1_455     S
V34     V35    10.0   .     S
V34     V36    10.0   1_455     S
V34     V6    10.0   1_455     S
V35     V32    10.0   1_455     S
V35     V31    10.0   1_455     S
V35     V20    10.0   1_455     S
V36     V21    10.0   1_655     S
V36     V33    10.0   1_655     S
V36     V34    10.0   1_655     S
V37     V39    10.0   .     S
V37     V42    10.0   .     S
V37     V38    10.0   .     S
V37     V41    10.0   .     S
V37     V44    10.0   .     S
V37     V43    10.0   .     S
V38     V43    10.0   .     S
V38     V39    10.0   .     S
V38     V40    10.0   .     S
V38     V41    10.0   .     S
V39     V42    10.0   .     S
V39     V40    10.0   .     S
V40     V42    10.0   .     S
V40     V41    10.0   .     S
V40     V46    10.0   .     S
V40     V45    10.0   .     S
V41     V42    10.0   .     S
V42     V45    10.0   .     S
V43     V47    10.0   1_565     S
V43     V46    10.0   1_565     S
V43     V44    10.0   .     S
V43     V48    10.0   .     S
V44     V8    10.0   1_565     S
V44     V48    10.0   .     S
V44     V47    10.0   1_565     S
V44     V45    10.0   1_565     S
V45     V48    10.0   1_545     S
V45     V44    10.0   1_545     S
V45     V46    10.0   .     S
V45     V47    10.0   .     S
V46     V43    10.0   1_545     S
V46     V47    10.0   .     S
V46     V48    10.0   1_545     S
V46     V12    10.0   1_545     S
V47     V2    10.0   1_545     S
V47     V43    10.0   1_545     S
V47     V44    10.0   1_545     S
V48     V3    10.0   1_565     S
V48     V45    10.0   1_565     S
V48     V46    10.0   1_565     S
