data_tei
_audit_creation_date              2020-02-04
_audit_creation_method            'Pymatgen'
_symmetry_space_group_name_H-M    'P1'
_symmetry_Int_Tables_number       1
loop_
_symmetry_equiv_pos_as_xyz
  x,y,z
_cell_length_a                    116.7737
_cell_length_b                    116.7737
_cell_length_c                    116.7737
_cell_angle_alpha                 90.0
_cell_angle_beta                 90.0
_cell_angle_gamma                 90.0
loop_
_atom_site_label
_atom_site_type_symbol
_atom_site_fract_x
_atom_site_fract_y
_atom_site_fract_z
O1     O     0.0   0.4141   0.0
O2     O     0.4141   0.0   0.0
O3     O     0.0   0.0   0.4141
O4     O     0.5   0.0859   0.5
O5     O     0.0859   0.5   0.5
O6     O     0.5   0.5   0.0859
O7     O     0.0   0.5859   0.0
O8     O     0.5859   0.0   0.0
O9     O     0.0   0.0   0.5859
O10     O     0.5   0.9141   0.5
O11     O     0.9141   0.5   0.5
O12     O     0.5   0.5   0.9141
Mn13     Mn     0.0809   0.1875   0.5
Cl14     Cl     0.1203   0.2635   0.5
Mn15     Mn     0.1875   0.5   0.0809
Cl16     Cl     0.2635   0.5   0.1203
Mn17     Mn     0.5   0.0809   0.1875
Cl18     Cl     0.5   0.1203   0.2635
Mn19     Mn     0.9191   0.1875   0.5
Cl20     Cl     0.8797   0.2635   0.5
Mn21     Mn     0.1875   0.5   0.9191
Cl22     Cl     0.2635   0.5   0.8797
Mn23     Mn     0.5   0.9191   0.1875
Cl24     Cl     0.5   0.8797   0.2635
Mn25     Mn     0.4191   0.3125   0.0
Cl26     Cl     0.3797   0.2365   0.0
Mn27     Mn     0.3125   0.0   0.4191
Cl28     Cl     0.2365   0.0   0.3797
Mn29     Mn     0.0   0.4191   0.3125
Cl30     Cl     0.0   0.3797   0.2365
Mn31     Mn     0.5809   0.3125   0.0
Cl32     Cl     0.6203   0.2365   0.0
Mn33     Mn     0.3125   0.0   0.5809
Cl34     Cl     0.2365   0.0   0.6203
Mn35     Mn     0.0   0.5809   0.3125
Cl36     Cl     0.0   0.6203   0.2365
Mn37     Mn     0.0809   0.8125   0.5
Cl38     Cl     0.1203   0.7365   0.5
Mn39     Mn     0.8125   0.5   0.0809
Cl40     Cl     0.7365   0.5   0.1203
Mn41     Mn     0.5   0.0809   0.8125
Cl42     Cl     0.5   0.1203   0.7365
Mn43     Mn     0.9191   0.8125   0.5
Cl44     Cl     0.8797   0.7365   0.5
Mn45     Mn     0.8125   0.5   0.9191
Cl46     Cl     0.7365   0.5   0.8797
Mn47     Mn     0.5   0.9191   0.8125
Cl48     Cl     0.5   0.8797   0.7365
Mn49     Mn     0.6875   0.0   0.4191
Cl50     Cl     0.7635   0.0   0.3797
Mn51     Mn     0.0   0.4191   0.6875
Cl52     Cl     0.0   0.3797   0.7635
Mn53     Mn     0.5809   0.6875   0.0
Cl54     Cl     0.6203   0.7635   0.0
Mn55     Mn     0.6875   0.0   0.5809
Cl56     Cl     0.7635   0.0   0.6203
Mn57     Mn     0.0   0.5809   0.6875
Cl58     Cl     0.0   0.6203   0.7635
Mn59     Mn     0.4191   0.6875   0.0
Cl60     Cl     0.3797   0.7635   0.0
Al61     Al     0.9572   0.574   0.5
Al62     Al     0.0428   0.574   0.5
Al63     Al     0.574   0.5   0.9572
Al64     Al     0.574   0.5   0.0428
Al65     Al     0.5   0.9572   0.574
Al66     Al     0.5   0.0428   0.574
Al67     Al     0.5428   0.926   0.0
Al68     Al     0.4572   0.926   0.0
Al69     Al     0.926   0.0   0.5428
Al70     Al     0.926   0.0   0.4572
Al71     Al     0.0   0.5428   0.926
Al72     Al     0.0   0.4572   0.926
Al73     Al     0.5428   0.074   0.0
Al74     Al     0.4572   0.074   0.0
Al75     Al     0.074   0.0   0.5428
Al76     Al     0.074   0.0   0.4572
Al77     Al     0.0   0.5428   0.074
Al78     Al     0.0   0.4572   0.074
Al79     Al     0.426   0.5   0.9572
Al80     Al     0.426   0.5   0.0428
Al81     Al     0.9572   0.426   0.5
Al82     Al     0.0428   0.426   0.5
Al83     Al     0.5   0.9572   0.426
Al84     Al     0.5   0.0428   0.426
Sc85     Sc     0.2509   0.3777   0.0675
Sc86     Sc     0.2509   0.3777   0.9325
Cr87     Cr     0.3708   0.3832   0.0
K88     K     0.2934   0.3466   0.0
Sc89     Sc     0.3777   0.0675   0.2509
Sc90     Sc     0.3777   0.9325   0.2509
Cr91     Cr     0.3832   0.0   0.3708
K92     K     0.3466   0.0   0.2934
Sc93     Sc     0.0675   0.2509   0.3777
Sc94     Sc     0.9325   0.2509   0.3777
Cr95     Cr     0.0   0.3708   0.3832
K96     K     0.0   0.2934   0.3466
Sc97     Sc     0.2509   0.6222   0.0675
Sc98     Sc     0.2509   0.6222   0.9325
Cr99     Cr     0.3708   0.6168   0.0
K100     K     0.2934   0.6534   0.0
Sc101     Sc     0.6222   0.0675   0.2509
Sc102     Sc     0.6222   0.9325   0.2509
Cr103     Cr     0.6168   0.0   0.3708
K104     K     0.6534   0.0   0.2934
Sc105     Sc     0.0675   0.2509   0.6222
Sc106     Sc     0.9325   0.2509   0.6222
Cr107     Cr     0.0   0.3708   0.6168
K108     K     0.0   0.2934   0.6534
Sc109     Sc     0.7509   0.8778   0.4325
Sc110     Sc     0.7509   0.8778   0.5675
Cr111     Cr     0.8708   0.8832   0.5
K112     K     0.7934   0.8466   0.5
Sc113     Sc     0.2491   0.1222   0.4325
Sc114     Sc     0.2491   0.1222   0.5675
Cr115     Cr     0.1292   0.1168   0.5
K116     K     0.2066   0.1534   0.5
Sc117     Sc     0.8778   0.4325   0.7509
Sc118     Sc     0.8778   0.5675   0.7509
Cr119     Cr     0.8832   0.5   0.8708
K120     K     0.8466   0.5   0.7934
Sc121     Sc     0.1222   0.4325   0.2491
Sc122     Sc     0.1222   0.5675   0.2491
Cr123     Cr     0.1168   0.5   0.1292
K124     K     0.1534   0.5   0.2066
Sc125     Sc     0.4325   0.7509   0.8778
Sc126     Sc     0.5675   0.7509   0.8778
Cr127     Cr     0.5   0.8708   0.8832
K128     K     0.5   0.7934   0.8466
Sc129     Sc     0.4325   0.2491   0.1222
Sc130     Sc     0.5675   0.2491   0.1222
Cr131     Cr     0.5   0.1292   0.1168
K132     K     0.5   0.2066   0.1534
Sc133     Sc     0.2491   0.8778   0.4325
Sc134     Sc     0.2491   0.8778   0.5675
Cr135     Cr     0.1292   0.8832   0.5
K136     K     0.2066   0.8466   0.5
Sc137     Sc     0.7509   0.1222   0.4325
Sc138     Sc     0.7509   0.1222   0.5675
Cr139     Cr     0.8708   0.1168   0.5
K140     K     0.7934   0.1534   0.5
Sc141     Sc     0.8778   0.4325   0.2491
Sc142     Sc     0.8778   0.5675   0.2491
Cr143     Cr     0.8832   0.5   0.1292
K144     K     0.8466   0.5   0.2066
Sc145     Sc     0.1222   0.4325   0.7509
Sc146     Sc     0.1222   0.5675   0.7509
Cr147     Cr     0.1168   0.5   0.8708
K148     K     0.1534   0.5   0.7934
Sc149     Sc     0.4325   0.7509   0.1222
Sc150     Sc     0.5675   0.7509   0.1222
Cr151     Cr     0.5   0.8708   0.1168
K152     K     0.5   0.7934   0.1534
Sc153     Sc     0.4325   0.2491   0.8778
Sc154     Sc     0.5675   0.2491   0.8778
Cr155     Cr     0.5   0.1292   0.8832
K156     K     0.5   0.2066   0.8466
Sc157     Sc     0.7491   0.6222   0.0675
Sc158     Sc     0.7491   0.6222   0.9325
Cr159     Cr     0.6292   0.6168   0.0
K160     K     0.7066   0.6534   0.0
Sc161     Sc     0.6222   0.0675   0.7491
Sc162     Sc     0.6222   0.9325   0.7491
Cr163     Cr     0.6168   0.0   0.6292
K164     K     0.6534   0.0   0.7066
Sc165     Sc     0.0675   0.7491   0.6222
Sc166     Sc     0.9325   0.7491   0.6222
Cr167     Cr     0.0   0.6292   0.6168
K168     K     0.0   0.7066   0.6534
Sc169     Sc     0.7491   0.3777   0.0675
Sc170     Sc     0.7491   0.3777   0.9325
Cr171     Cr     0.6292   0.3832   0.0
K172     K     0.7066   0.3466   0.0
Sc173     Sc     0.3777   0.0675   0.7491
Sc174     Sc     0.3777   0.9325   0.7491
Cr175     Cr     0.3832   0.0   0.6292
K176     K     0.3466   0.0   0.7066
Sc177     Sc     0.0675   0.7491   0.3777
Sc178     Sc     0.9325   0.7491   0.3777
Cr179     Cr     0.0   0.6292   0.3832
K180     K     0.0   0.7066   0.3466
Li181     Li     0.6868   0.3021   0.5428
Li182     Li     0.6868   0.3021   0.4572
C183     C     0.7574   0.2633   0.5716
Ne184     Ne     0.7976   0.2389   0.5
C185     C     0.7574   0.2633   0.4284
Mg186     Mg     0.727   0.1929   0.6096
Mg187     Mg     0.727   0.1929   0.3904
Li188     Li     0.6868   0.6979   0.4572
Li189     Li     0.6868   0.6979   0.5428
C190     C     0.7574   0.7367   0.4284
Ne191     Ne     0.7976   0.7611   0.5
C192     C     0.7574   0.7367   0.5716
Mg193     Mg     0.727   0.8071   0.6096
Mg194     Mg     0.727   0.8071   0.3904
Li195     Li     0.3021   0.5428   0.6868
Li196     Li     0.3021   0.4572   0.6868
C197     C     0.2633   0.5716   0.7574
Ne198     Ne     0.2389   0.5   0.7976
C199     C     0.2633   0.4284   0.7574
Mg200     Mg     0.1929   0.6096   0.727
Mg201     Mg     0.1929   0.3904   0.727
Li202     Li     0.6979   0.4572   0.6868
Li203     Li     0.6979   0.5428   0.6868
C204     C     0.7367   0.4284   0.7574
Ne205     Ne     0.7611   0.5   0.7976
C206     C     0.7367   0.5716   0.7574
Mg207     Mg     0.8071   0.6096   0.727
Mg208     Mg     0.8071   0.3904   0.727
Li209     Li     0.5428   0.6868   0.3021
Li210     Li     0.4572   0.6868   0.3021
C211     C     0.5716   0.7574   0.2633
Ne212     Ne     0.5   0.7976   0.2389
C213     C     0.4284   0.7574   0.2633
Mg214     Mg     0.6096   0.727   0.1929
Mg215     Mg     0.3904   0.727   0.1929
Li216     Li     0.4572   0.6868   0.6979
Li217     Li     0.5428   0.6868   0.6979
C218     C     0.4284   0.7574   0.7367
Ne219     Ne     0.5   0.7976   0.7611
C220     C     0.5716   0.7574   0.7367
Mg221     Mg     0.6096   0.727   0.8071
Mg222     Mg     0.3904   0.727   0.8071
Li223     Li     0.3132   0.3021   0.4572
Li224     Li     0.3132   0.3021   0.5428
C225     C     0.2426   0.2633   0.4284
Ne226     Ne     0.2024   0.2389   0.5
C227     C     0.2426   0.2633   0.5716
Mg228     Mg     0.273   0.1929   0.6096
Mg229     Mg     0.273   0.1929   0.3904
Li230     Li     0.3132   0.6979   0.5428
Li231     Li     0.3132   0.6979   0.4572
C232     C     0.2426   0.7367   0.5716
Ne233     Ne     0.2024   0.7611   0.5
C234     C     0.2426   0.7367   0.4284
Mg235     Mg     0.273   0.8071   0.6096
Mg236     Mg     0.273   0.8071   0.3904
Li237     Li     0.3021   0.4572   0.3132
Li238     Li     0.3021   0.5428   0.3132
C239     C     0.2633   0.4284   0.2426
Ne240     Ne     0.2389   0.5   0.2024
C241     C     0.2633   0.5716   0.2426
Mg242     Mg     0.1929   0.6096   0.273
Mg243     Mg     0.1929   0.3904   0.273
Li244     Li     0.6979   0.5428   0.3132
Li245     Li     0.6979   0.4572   0.3132
C246     C     0.7367   0.5716   0.2426
Ne247     Ne     0.7611   0.5   0.2024
C248     C     0.7367   0.4284   0.2426
Mg249     Mg     0.8071   0.6096   0.273
Mg250     Mg     0.8071   0.3904   0.273
Li251     Li     0.4572   0.3132   0.3021
Li252     Li     0.5428   0.3132   0.3021
C253     C     0.4284   0.2426   0.2633
Ne254     Ne     0.5   0.2024   0.2389
C255     C     0.5716   0.2426   0.2633
Mg256     Mg     0.6096   0.273   0.1929
Mg257     Mg     0.3904   0.273   0.1929
Li258     Li     0.5428   0.3132   0.6979
Li259     Li     0.4572   0.3132   0.6979
C260     C     0.5716   0.2426   0.7367
Ne261     Ne     0.5   0.2024   0.7611
C262     C     0.4284   0.2426   0.7367
Mg263     Mg     0.6096   0.273   0.8071
Mg264     Mg     0.3904   0.273   0.8071
Si265     Si     0.3898   0.1934   0.9267
Ar266     Ar     0.4303   0.1181   0.9317
Si267     Si     0.6102   0.8066   0.9267
Ar268     Ar     0.5697   0.8819   0.9317
Si269     Si     0.1934   0.9267   0.3898
Ar270     Ar     0.1181   0.9317   0.4303
Si271     Si     0.8066   0.9267   0.6102
Ar272     Ar     0.8819   0.9317   0.5697
Si273     Si     0.9267   0.3898   0.1934
Ar274     Ar     0.9317   0.4303   0.1181
Si275     Si     0.9267   0.6102   0.8066
Ar276     Ar     0.9317   0.5697   0.8819
Si277     Si     0.6102   0.1934   0.9267
Ar278     Ar     0.5697   0.1181   0.9317
Si279     Si     0.3898   0.8066   0.9267
Ar280     Ar     0.4303   0.8819   0.9317
Si281     Si     0.1934   0.9267   0.6102
Ar282     Ar     0.1181   0.9317   0.5697
Si283     Si     0.8066   0.9267   0.3898
Ar284     Ar     0.8819   0.9317   0.4303
Si285     Si     0.9267   0.3898   0.8066
Ar286     Ar     0.9317   0.4303   0.8819
Si287     Si     0.9267   0.6102   0.1934
Ar288     Ar     0.9317   0.5697   0.1181
Si289     Si     0.6102   0.1934   0.0733
Ar290     Ar     0.5697   0.1181   0.0683
Si291     Si     0.1934   0.0733   0.6102
Ar292     Ar     0.1181   0.0683   0.5697
Si293     Si     0.0733   0.6102   0.1934
Ar294     Ar     0.0683   0.5697   0.1181
Si295     Si     0.3898   0.1934   0.0733
Ar296     Ar     0.4303   0.1181   0.0683
Si297     Si     0.1934   0.0733   0.3898
Ar298     Ar     0.1181   0.0683   0.4303
Si299     Si     0.0733   0.3898   0.1934
Ar300     Ar     0.0683   0.4303   0.1181
Si301     Si     0.3898   0.8066   0.0733
Ar302     Ar     0.4303   0.8819   0.0683
Si303     Si     0.8066   0.0733   0.3898
Ar304     Ar     0.8819   0.0683   0.4303
Si305     Si     0.0733   0.3898   0.8066
Ar306     Ar     0.0683   0.4303   0.8819
Si307     Si     0.6102   0.8066   0.0733
Ar308     Ar     0.5697   0.8819   0.0683
Si309     Si     0.8066   0.0733   0.6102
Ar310     Ar     0.8819   0.0683   0.5697
Si311     Si     0.0733   0.6102   0.8066
Ar312     Ar     0.0683   0.5697   0.8819
Ca313     Ca     0.1828   0.4234   0.9572
Ca314     Ca     0.4234   0.9572   0.1828
Ca315     Ca     0.9572   0.1828   0.4234
Ca316     Ca     0.1828   0.4234   0.0428
Ca317     Ca     0.4234   0.0428   0.1828
Ca318     Ca     0.0428   0.1828   0.4234
Ca319     Ca     0.1828   0.5766   0.0428
Ca320     Ca     0.5766   0.0428   0.1828
Ca321     Ca     0.0428   0.1828   0.5766
Ca322     Ca     0.1828   0.5766   0.9572
Ca323     Ca     0.5766   0.9572   0.1828
Ca324     Ca     0.9572   0.1828   0.5766
Ca325     Ca     0.8172   0.4234   0.0428
Ca326     Ca     0.4234   0.0428   0.8172
Ca327     Ca     0.0428   0.8172   0.4234
Ca328     Ca     0.8172   0.4234   0.9572
Ca329     Ca     0.4234   0.9572   0.8172
Ca330     Ca     0.9572   0.8172   0.4234
Ca331     Ca     0.8172   0.5766   0.9572
Ca332     Ca     0.5766   0.9572   0.8172
Ca333     Ca     0.9572   0.8172   0.5766
Ca334     Ca     0.8172   0.5766   0.0428
Ca335     Ca     0.5766   0.0428   0.8172
Ca336     Ca     0.0428   0.8172   0.5766
P337     P     0.1912   0.6889   0.2406
F338     F     0.1181   0.6831   0.1963
P339     P     0.6889   0.2406   0.1912
F340     F     0.6831   0.1963   0.1181
P341     P     0.2406   0.1912   0.6889
F342     F     0.1963   0.1181   0.6831
P343     P     0.1912   0.3111   0.2406
F344     F     0.1181   0.3169   0.1963
P345     P     0.3111   0.2406   0.1912
F346     F     0.3169   0.1963   0.1181
P347     P     0.2406   0.1912   0.3111
F348     F     0.1963   0.1181   0.3169
P349     P     0.8088   0.3111   0.2406
F350     F     0.8819   0.3169   0.1963
P351     P     0.3111   0.2406   0.8088
F352     F     0.3169   0.1963   0.8819
P353     P     0.2406   0.8088   0.3111
F354     F     0.1963   0.8819   0.3169
P355     P     0.8088   0.6889   0.2406
F356     F     0.8819   0.6831   0.1963
P357     P     0.6889   0.2406   0.8088
F358     F     0.6831   0.1963   0.8819
P359     P     0.2406   0.8088   0.6889
F360     F     0.1963   0.8819   0.6831
P361     P     0.1912   0.6889   0.7594
F362     F     0.1181   0.6831   0.8037
P363     P     0.6889   0.7594   0.1912
F364     F     0.6831   0.8037   0.1181
P365     P     0.7594   0.1912   0.6889
F366     F     0.8037   0.1181   0.6831
P367     P     0.1912   0.3111   0.7594
F368     F     0.1181   0.3169   0.8037
P369     P     0.8088   0.6889   0.7594
F370     F     0.8819   0.6831   0.8037
P371     P     0.3111   0.7594   0.1912
F372     F     0.3169   0.8037   0.1181
P373     P     0.6889   0.7594   0.8088
F374     F     0.6831   0.8037   0.8819
P375     P     0.7594   0.1912   0.3111
F376     F     0.8037   0.1181   0.3169
P377     P     0.7594   0.8088   0.6889
F378     F     0.8037   0.8819   0.6831
P379     P     0.8088   0.3111   0.7594
F380     F     0.8819   0.3169   0.8037
P381     P     0.3111   0.7594   0.8088
F382     F     0.3169   0.8037   0.8819
P383     P     0.7594   0.8088   0.3111
F384     F     0.8037   0.8819   0.3169
N385     N     0.6891   0.1141   0.8584
Be386     Be     0.7578   0.0687   0.8818
B387     B     0.6399   0.0   0.9335
He388     He     0.7246   0.0   0.9208
N389     N     0.6891   0.8859   0.8584
Be390     Be     0.7578   0.9313   0.8818
N391     N     0.6891   0.1141   0.1416
Be392     Be     0.7578   0.0687   0.1182
B393     B     0.6399   0.0   0.0665
He394     He     0.7246   0.0   0.0792
N395     N     0.6891   0.8859   0.1416
Be396     Be     0.7578   0.9313   0.1182
Ce397     Ce     0.8036   0.9281   0.0
Ce398     Ce     0.8036   0.0719   0.0
S399     S     0.7571   0.0   0.0
N400     N     0.1141   0.8584   0.6891
Be401     Be     0.0687   0.8818   0.7578
B402     B     0.0   0.9335   0.6399
He403     He     0.0   0.9208   0.7246
N404     N     0.8859   0.8584   0.6891
Be405     Be     0.9313   0.8818   0.7578
N406     N     0.1141   0.1416   0.6891
Be407     Be     0.0687   0.1182   0.7578
B408     B     0.0   0.0665   0.6399
He409     He     0.0   0.0792   0.7246
N410     N     0.8859   0.1416   0.6891
Be411     Be     0.9313   0.1182   0.7578
Ce412     Ce     0.9281   0.0   0.8036
Ce413     Ce     0.0719   0.0   0.8036
S414     S     0.0   0.0   0.7571
N415     N     0.8584   0.6891   0.1141
Be416     Be     0.8818   0.7578   0.0687
B417     B     0.9335   0.6399   0.0
He418     He     0.9208   0.7246   0.0
N419     N     0.8584   0.6891   0.8859
Be420     Be     0.8818   0.7578   0.9313
N421     N     0.1416   0.6891   0.1141
Be422     Be     0.1182   0.7578   0.0687
B423     B     0.0665   0.6399   0.0
He424     He     0.0792   0.7246   0.0
N425     N     0.1416   0.6891   0.8859
Be426     Be     0.1182   0.7578   0.9313
Ce427     Ce     0.0   0.8036   0.9281
Ce428     Ce     0.0   0.8036   0.0719
S429     S     0.0   0.7571   0.0
N430     N     0.3109   0.1141   0.8584
Be431     Be     0.2422   0.0687   0.8818
B432     B     0.3601   0.0   0.9335
He433     He     0.2754   0.0   0.9208
N434     N     0.3109   0.8859   0.8584
Be435     Be     0.2422   0.9313   0.8818
N436     N     0.3109   0.1141   0.1416
Be437     Be     0.2422   0.0687   0.1182
B438     B     0.3601   0.0   0.0665
He439     He     0.2754   0.0   0.0792
N440     N     0.3109   0.8859   0.1416
Be441     Be     0.2422   0.9313   0.1182
Ce442     Ce     0.1964   0.9281   0.0
Ce443     Ce     0.1964   0.0719   0.0
S444     S     0.2429   0.0   0.0
N445     N     0.1141   0.8584   0.3109
Be446     Be     0.0687   0.8818   0.2422
B447     B     0.0   0.9335   0.3601
He448     He     0.0   0.9208   0.2754
N449     N     0.8859   0.8584   0.3109
Be450     Be     0.9313   0.8818   0.2422
N451     N     0.1141   0.1416   0.3109
Be452     Be     0.0687   0.1182   0.2422
B453     B     0.0   0.0665   0.3601
He454     He     0.0   0.0792   0.2754
N455     N     0.8859   0.1416   0.3109
Be456     Be     0.9313   0.1182   0.2422
Ce457     Ce     0.9281   0.0   0.1964
Ce458     Ce     0.0719   0.0   0.1964
S459     S     0.0   0.0   0.2429
N460     N     0.8584   0.3109   0.1141
Be461     Be     0.8818   0.2422   0.0687
B462     B     0.9335   0.3601   0.0
He463     He     0.9208   0.2754   0.0
N464     N     0.8584   0.3109   0.8859
Be465     Be     0.8818   0.2422   0.9313
N466     N     0.1416   0.3109   0.1141
Be467     Be     0.1182   0.2422   0.0687
B468     B     0.0665   0.3601   0.0
He469     He     0.0792   0.2754   0.0
N470     N     0.1416   0.3109   0.8859
Be471     Be     0.1182   0.2422   0.9313
Ce472     Ce     0.0   0.1964   0.9281
Ce473     Ce     0.0   0.1964   0.0719
S474     S     0.0   0.2429   0.0
Er475     Er     0.1159   0.0428   0.0
Er476     Er     0.0428   0.0   0.1159
Er477     Er     0.0   0.1159   0.0428
H478     H     0.189   0.1175   0.0721
H479     H     0.1175   0.0721   0.189
H480     H     0.0721   0.189   0.1175
Ti481     Ti     0.1148   0.1148   0.1148
V482     V     0.0654   0.0654   0.0654
Er483     Er     0.9572   0.0   0.1159
H484     H     0.9279   0.189   0.1175
H485     H     0.8825   0.0721   0.189
H486     H     0.811   0.1175   0.0721
Ti487     Ti     0.8852   0.1148   0.1148
V488     V     0.9346   0.0654   0.0654
Er489     Er     0.8841   0.0428   0.0
H490     H     0.9279   0.189   0.8825
H491     H     0.811   0.1175   0.9279
H492     H     0.8825   0.0721   0.811
Ti493     Ti     0.8852   0.1148   0.8852
V494     V     0.9346   0.0654   0.9346
Er495     Er     0.9572   0.0   0.8841
H496     H     0.1175   0.9279   0.189
H497     H     0.189   0.8825   0.0721
H498     H     0.0721   0.811   0.1175
Ti499     Ti     0.1148   0.8852   0.1148
V500     V     0.0654   0.9346   0.0654
Er501     Er     0.0   0.8841   0.0428
Er502     Er     0.1159   0.9572   0.0
Er503     Er     0.0428   0.0   0.8841
H504     H     0.189   0.1175   0.9279
H505     H     0.0721   0.189   0.8825
H506     H     0.1175   0.0721   0.811
Ti507     Ti     0.1148   0.1148   0.8852
V508     V     0.0654   0.0654   0.9346
Er509     Er     0.0   0.1159   0.9572
H510     H     0.8825   0.9279   0.189
H511     H     0.9279   0.811   0.1175
H512     H     0.811   0.8825   0.0721
Ti513     Ti     0.8852   0.8852   0.1148
V514     V     0.9346   0.9346   0.0654
Er515     Er     0.8841   0.9572   0.0
H516     H     0.811   0.8825   0.9279
H517     H     0.8825   0.9279   0.811
H518     H     0.9279   0.811   0.8825
Ti519     Ti     0.8852   0.8852   0.8852
V520     V     0.9346   0.9346   0.9346
Er521     Er     0.0   0.8841   0.9572
H522     H     0.189   0.8825   0.9279
H523     H     0.1175   0.9279   0.811
H524     H     0.0721   0.811   0.8825
Ti525     Ti     0.1148   0.8852   0.8852
V526     V     0.0654   0.9346   0.9346
Na527     Na     0.9316   0.1147   0.6218
Na528     Na     0.6218   0.9316   0.1147
Na529     Na     0.1147   0.6218   0.9316
Na530     Na     0.9316   0.1147   0.3782
Na531     Na     0.3782   0.9316   0.1147
Na532     Na     0.1147   0.3782   0.9316
Na533     Na     0.0684   0.1147   0.3782
Na534     Na     0.3782   0.0684   0.1147
Na535     Na     0.1147   0.3782   0.0684
Na536     Na     0.0684   0.1147   0.6218
Na537     Na     0.6218   0.0684   0.1147
Na538     Na     0.1147   0.6218   0.0684
Na539     Na     0.9316   0.8853   0.3782
Na540     Na     0.3782   0.9316   0.8853
Na541     Na     0.8853   0.3782   0.9316
Na542     Na     0.9316   0.8853   0.6218
Na543     Na     0.6218   0.9316   0.8853
Na544     Na     0.8853   0.6218   0.9316
Na545     Na     0.0684   0.8853   0.6218
Na546     Na     0.6218   0.0684   0.8853
Na547     Na     0.8853   0.6218   0.0684
Na548     Na     0.0684   0.8853   0.3782
Na549     Na     0.3782   0.0684   0.8853
Na550     Na     0.8853   0.3782   0.0684
Li551     Li     0.8132   0.8021   0.9572
Li552     Li     0.8132   0.8021   0.0428
C553     C     0.7426   0.7633   0.9284
Ne554     Ne     0.7024   0.7389   0.0
C555     C     0.7426   0.7633   0.0716
Mg556     Mg     0.773   0.6929   0.8904
Mg557     Mg     0.773   0.6929   0.1096
Li558     Li     0.1979   0.9572   0.1868
Li559     Li     0.1979   0.0428   0.1868
C560     C     0.2367   0.9284   0.2574
Ne561     Ne     0.2611   0.0   0.2976
C562     C     0.2367   0.0716   0.2574
Mg563     Mg     0.3071   0.8904   0.227
Mg564     Mg     0.3071   0.1096   0.227
Li565     Li     0.8021   0.9572   0.8132
Li566     Li     0.8021   0.0428   0.8132
C567     C     0.7633   0.9284   0.7426
Ne568     Ne     0.7389   0.0   0.7024
C569     C     0.7633   0.0716   0.7426
Mg570     Mg     0.6929   0.8904   0.773
Mg571     Mg     0.6929   0.1096   0.773
Li572     Li     0.9572   0.1868   0.1979
Li573     Li     0.0428   0.1868   0.1979
C574     C     0.9284   0.2574   0.2367
Ne575     Ne     0.0   0.2976   0.2611
C576     C     0.0716   0.2574   0.2367
Mg577     Mg     0.8904   0.227   0.3071
Mg578     Mg     0.1096   0.227   0.3071
Li579     Li     0.9572   0.8132   0.8021
Li580     Li     0.0428   0.8132   0.8021
C581     C     0.9284   0.7426   0.7633
Ne582     Ne     0.0   0.7024   0.7389
C583     C     0.0716   0.7426   0.7633
Mg584     Mg     0.8904   0.773   0.6929
Mg585     Mg     0.1096   0.773   0.6929
Li586     Li     0.1868   0.8021   0.9572
Li587     Li     0.1868   0.8021   0.0428
C588     C     0.2574   0.7633   0.9284
Ne589     Ne     0.2976   0.7389   0.0
C590     C     0.2574   0.7633   0.0716
Mg591     Mg     0.227   0.6929   0.8904
Mg592     Mg     0.227   0.6929   0.1096
Li593     Li     0.1979   0.0428   0.8132
Li594     Li     0.1979   0.9572   0.8132
C595     C     0.2367   0.9284   0.7426
Ne596     Ne     0.2611   0.0   0.7024
C597     C     0.2367   0.0716   0.7426
Mg598     Mg     0.3071   0.8904   0.773
Mg599     Mg     0.3071   0.1096   0.773
Li600     Li     0.8021   0.9572   0.1868
Li601     Li     0.8021   0.0428   0.1868
C602     C     0.7633   0.9284   0.2574
Ne603     Ne     0.7389   0.0   0.2976
C604     C     0.7633   0.0716   0.2574
Mg605     Mg     0.6929   0.8904   0.227
Mg606     Mg     0.6929   0.1096   0.227
Li607     Li     0.9572   0.1868   0.8021
Li608     Li     0.0428   0.1868   0.8021
C609     C     0.9284   0.2574   0.7633
Ne610     Ne     0.0   0.2976   0.7389
C611     C     0.0716   0.2574   0.7633
Mg612     Mg     0.8904   0.227   0.6929
Mg613     Mg     0.1096   0.227   0.6929
Li614     Li     0.0428   0.8132   0.1979
Li615     Li     0.9572   0.8132   0.1979
C616     C     0.9284   0.7426   0.2367
Ne617     Ne     0.0   0.7024   0.2611
C618     C     0.0716   0.7426   0.2367
Mg619     Mg     0.8904   0.773   0.3071
Mg620     Mg     0.1096   0.773   0.3071
Li621     Li     0.1868   0.1979   0.9572
Li622     Li     0.1868   0.1979   0.0428
C623     C     0.2574   0.2367   0.9284
Ne624     Ne     0.2976   0.2611   0.0
C625     C     0.2574   0.2367   0.0716
Mg626     Mg     0.227   0.3071   0.8904
Mg627     Mg     0.227   0.3071   0.1096
Li628     Li     0.8132   0.1979   0.0428
Li629     Li     0.8132   0.1979   0.9572
C630     C     0.7426   0.2367   0.9284
Ne631     Ne     0.7024   0.2611   0.0
C632     C     0.7426   0.2367   0.0716
Mg633     Mg     0.773   0.3071   0.8904
Mg634     Mg     0.773   0.3071   0.1096
Si635     Si     0.8898   0.3066   0.5733
Ar636     Ar     0.9303   0.3819   0.5683
Si637     Si     0.1102   0.6934   0.5733
Ar638     Ar     0.0697   0.6181   0.5683
Si639     Si     0.3066   0.5733   0.8898
Ar640     Ar     0.3819   0.5683   0.9303
Si641     Si     0.6934   0.5733   0.1102
Ar642     Ar     0.6181   0.5683   0.0697
Si643     Si     0.5733   0.1102   0.6934
Ar644     Ar     0.5683   0.0697   0.6181
Si645     Si     0.5733   0.8898   0.3066
Ar646     Ar     0.5683   0.9303   0.3819
Si647     Si     0.1102   0.3066   0.5733
Ar648     Ar     0.0697   0.3819   0.5683
Si649     Si     0.8898   0.6934   0.5733
Ar650     Ar     0.9303   0.6181   0.5683
Si651     Si     0.3066   0.5733   0.1102
Ar652     Ar     0.3819   0.5683   0.0697
Si653     Si     0.6934   0.5733   0.8898
Ar654     Ar     0.6181   0.5683   0.9303
Si655     Si     0.5733   0.1102   0.3066
Ar656     Ar     0.5683   0.0697   0.3819
Si657     Si     0.5733   0.8898   0.6934
Ar658     Ar     0.5683   0.9303   0.6181
Si659     Si     0.1102   0.3066   0.4267
Ar660     Ar     0.0697   0.3819   0.4317
Si661     Si     0.3066   0.4267   0.1102
Ar662     Ar     0.3819   0.4317   0.0697
Si663     Si     0.4267   0.1102   0.3066
Ar664     Ar     0.4317   0.0697   0.3819
Si665     Si     0.8898   0.3066   0.4267
Ar666     Ar     0.9303   0.3819   0.4317
Si667     Si     0.3066   0.4267   0.8898
Ar668     Ar     0.3819   0.4317   0.9303
Si669     Si     0.4267   0.8898   0.3066
Ar670     Ar     0.4317   0.9303   0.3819
Si671     Si     0.8898   0.6934   0.4267
Ar672     Ar     0.9303   0.6181   0.4317
Si673     Si     0.6934   0.4267   0.8898
Ar674     Ar     0.6181   0.4317   0.9303
Si675     Si     0.4267   0.8898   0.6934
Ar676     Ar     0.4317   0.9303   0.6181
Si677     Si     0.1102   0.6934   0.4267
Ar678     Ar     0.0697   0.6181   0.4317
Si679     Si     0.6934   0.4267   0.1102
Ar680     Ar     0.6181   0.4317   0.0697
Si681     Si     0.4267   0.1102   0.6934
Ar682     Ar     0.4317   0.0697   0.6181
Ca683     Ca     0.3172   0.0766   0.4572
Ca684     Ca     0.0766   0.4572   0.3172
Ca685     Ca     0.4572   0.3172   0.0766
Ca686     Ca     0.3172   0.0766   0.5428
Ca687     Ca     0.0766   0.5428   0.3172
Ca688     Ca     0.5428   0.3172   0.0766
Ca689     Ca     0.6828   0.0766   0.5428
Ca690     Ca     0.3172   0.9234   0.5428
Ca691     Ca     0.0766   0.5428   0.6828
Ca692     Ca     0.9234   0.5428   0.3172
Ca693     Ca     0.5428   0.3172   0.9234
Ca694     Ca     0.5428   0.6828   0.0766
Ca695     Ca     0.3172   0.9234   0.4572
Ca696     Ca     0.6828   0.0766   0.4572
Ca697     Ca     0.9234   0.4572   0.3172
Ca698     Ca     0.0766   0.4572   0.6828
Ca699     Ca     0.4572   0.6828   0.0766
Ca700     Ca     0.4572   0.3172   0.9234
Ca701     Ca     0.6828   0.9234   0.4572
Ca702     Ca     0.9234   0.4572   0.6828
Ca703     Ca     0.4572   0.6828   0.9234
Ca704     Ca     0.6828   0.9234   0.5428
Ca705     Ca     0.9234   0.5428   0.6828
Ca706     Ca     0.5428   0.6828   0.9234
P707     P     0.3088   0.8111   0.7406
F708     F     0.3819   0.8169   0.6963
P709     P     0.8111   0.7406   0.3088
F710     F     0.8169   0.6963   0.3819
P711     P     0.7406   0.3088   0.8111
F712     F     0.6963   0.3819   0.8169
P713     P     0.3088   0.1889   0.7406
F714     F     0.3819   0.1831   0.6963
P715     P     0.1889   0.7406   0.3088
F716     F     0.1831   0.6963   0.3819
P717     P     0.7406   0.3088   0.1889
F718     F     0.6963   0.3819   0.1831
P719     P     0.6912   0.8111   0.7406
F720     F     0.6181   0.8169   0.6963
P721     P     0.8111   0.7406   0.6912
F722     F     0.8169   0.6963   0.6181
P723     P     0.7406   0.6912   0.8111
F724     F     0.6963   0.6181   0.8169
P725     P     0.6912   0.1889   0.7406
F726     F     0.6181   0.1831   0.6963
P727     P     0.1889   0.7406   0.6912
F728     F     0.1831   0.6963   0.6181
P729     P     0.7406   0.6912   0.1889
F730     F     0.6963   0.6181   0.1831
P731     P     0.3088   0.8111   0.2594
F732     F     0.3819   0.8169   0.3037
P733     P     0.8111   0.2594   0.3088
F734     F     0.8169   0.3037   0.3819
P735     P     0.2594   0.3088   0.8111
F736     F     0.3037   0.3819   0.8169
P737     P     0.3088   0.1889   0.2594
F738     F     0.3819   0.1831   0.3037
P739     P     0.1889   0.2594   0.3088
F740     F     0.1831   0.3037   0.3819
P741     P     0.2594   0.3088   0.1889
F742     F     0.3037   0.3819   0.1831
P743     P     0.6912   0.8111   0.2594
F744     F     0.6181   0.8169   0.3037
P745     P     0.8111   0.2594   0.6912
F746     F     0.8169   0.3037   0.6181
P747     P     0.2594   0.6912   0.8111
F748     F     0.3037   0.6181   0.8169
P749     P     0.6912   0.1889   0.2594
F750     F     0.6181   0.1831   0.3037
P751     P     0.1889   0.2594   0.6912
F752     F     0.1831   0.3037   0.6181
P753     P     0.2594   0.6912   0.1889
F754     F     0.3037   0.6181   0.1831
N755     N     0.8109   0.6141   0.3584
Be756     Be     0.7422   0.5687   0.3818
B757     B     0.8601   0.5   0.4335
He758     He     0.7754   0.5   0.4208
N759     N     0.8109   0.3859   0.3584
Be760     Be     0.7422   0.4313   0.3818
N761     N     0.8109   0.6141   0.6416
Be762     Be     0.7422   0.5687   0.6182
B763     B     0.8601   0.5   0.5665
He764     He     0.7754   0.5   0.5792
N765     N     0.8109   0.3859   0.6416
Be766     Be     0.7422   0.4313   0.6182
Ce767     Ce     0.6964   0.5719   0.5
Ce768     Ce     0.6964   0.4281   0.5
S769     S     0.7429   0.5   0.5
N770     N     0.3584   0.8109   0.6141
Be771     Be     0.3818   0.7422   0.5687
B772     B     0.4335   0.8601   0.5
He773     He     0.4208   0.7754   0.5
N774     N     0.3584   0.8109   0.3859
Be775     Be     0.3818   0.7422   0.4313
N776     N     0.6416   0.8109   0.6141
Be777     Be     0.6182   0.7422   0.5687
B778     B     0.5665   0.8601   0.5
He779     He     0.5792   0.7754   0.5
N780     N     0.6416   0.8109   0.3859
Be781     Be     0.6182   0.7422   0.4313
Ce782     Ce     0.5   0.6964   0.5719
Ce783     Ce     0.5   0.6964   0.4281
S784     S     0.5   0.7429   0.5
N785     N     0.6141   0.3584   0.8109
Be786     Be     0.5687   0.3818   0.7422
B787     B     0.5   0.4335   0.8601
He788     He     0.5   0.4208   0.7754
N789     N     0.3859   0.3584   0.8109
Be790     Be     0.4313   0.3818   0.7422
N791     N     0.6141   0.6416   0.8109
Be792     Be     0.5687   0.6182   0.7422
B793     B     0.5   0.5665   0.8601
He794     He     0.5   0.5792   0.7754
N795     N     0.3859   0.6416   0.8109
Be796     Be     0.4313   0.6182   0.7422
Ce797     Ce     0.4281   0.5   0.6964
Ce798     Ce     0.5719   0.5   0.6964
S799     S     0.5   0.5   0.7429
N800     N     0.1891   0.6141   0.3584
Be801     Be     0.2578   0.5687   0.3818
B802     B     0.1399   0.5   0.4335
He803     He     0.2246   0.5   0.4208
N804     N     0.1891   0.3859   0.3584
Be805     Be     0.2578   0.4313   0.3818
N806     N     0.1891   0.6141   0.6416
Be807     Be     0.2578   0.5687   0.6182
B808     B     0.1399   0.5   0.5665
He809     He     0.2246   0.5   0.5792
N810     N     0.1891   0.3859   0.6416
Be811     Be     0.2578   0.4313   0.6182
Ce812     Ce     0.3036   0.4281   0.5
Ce813     Ce     0.3036   0.5719   0.5
S814     S     0.2571   0.5   0.5
N815     N     0.6141   0.3584   0.1891
Be816     Be     0.5687   0.3818   0.2578
B817     B     0.5   0.4335   0.1399
He818     He     0.5   0.4208   0.2246
N819     N     0.3859   0.3584   0.1891
Be820     Be     0.4313   0.3818   0.2578
N821     N     0.6141   0.6416   0.1891
Be822     Be     0.5687   0.6182   0.2578
B823     B     0.5   0.5665   0.1399
He824     He     0.5   0.5792   0.2246
N825     N     0.3859   0.6416   0.1891
Be826     Be     0.4313   0.6182   0.2578
Ce827     Ce     0.4281   0.5   0.3036
Ce828     Ce     0.5719   0.5   0.3036
S829     S     0.5   0.5   0.2571
N830     N     0.3584   0.1891   0.6141
Be831     Be     0.3818   0.2578   0.5687
B832     B     0.4335   0.1399   0.5
He833     He     0.4208   0.2246   0.5
N834     N     0.3584   0.1891   0.3859
Be835     Be     0.3818   0.2578   0.4313
N836     N     0.6416   0.1891   0.6141
Be837     Be     0.6182   0.2578   0.5687
B838     B     0.5665   0.1399   0.5
He839     He     0.5792   0.2246   0.5
N840     N     0.6416   0.1891   0.3859
Be841     Be     0.6182   0.2578   0.4313
Ce842     Ce     0.5   0.3036   0.4281
Ce843     Ce     0.5   0.3036   0.5719
S844     S     0.5   0.2571   0.5
H845     H     0.311   0.3825   0.4279
H846     H     0.3825   0.4279   0.311
H847     H     0.4279   0.311   0.3825
Ti848     Ti     0.3852   0.3852   0.3852
V849     V     0.4346   0.4346   0.4346
Er850     Er     0.5428   0.5   0.3841
Er851     Er     0.4572   0.5   0.3841
Er852     Er     0.5   0.3841   0.4572
H853     H     0.5721   0.311   0.3825
H854     H     0.6175   0.4279   0.311
H855     H     0.689   0.3825   0.4279
Ti856     Ti     0.6148   0.3852   0.3852
V857     V     0.5654   0.4346   0.4346
Er858     Er     0.6159   0.4572   0.5
Er859     Er     0.5428   0.5   0.6159
H860     H     0.5721   0.311   0.6175
H861     H     0.689   0.3825   0.5721
H862     H     0.6175   0.4279   0.689
Ti863     Ti     0.6148   0.3852   0.6148
V864     V     0.5654   0.4346   0.5654
Er865     Er     0.5   0.3841   0.5428
H866     H     0.311   0.3825   0.5721
H867     H     0.4279   0.311   0.6175
H868     H     0.3825   0.4279   0.689
Ti869     Ti     0.3852   0.3852   0.6148
V870     V     0.4346   0.4346   0.5654
Er871     Er     0.4572   0.5   0.6159
Er872     Er     0.3841   0.4572   0.5
H873     H     0.3825   0.5721   0.311
H874     H     0.311   0.6175   0.4279
H875     H     0.4279   0.689   0.3825
Ti876     Ti     0.3852   0.6148   0.3852
V877     V     0.4346   0.5654   0.4346
Er878     Er     0.5   0.6159   0.4572
Er879     Er     0.6159   0.5428   0.5
H880     H     0.6175   0.5721   0.311
H881     H     0.5721   0.689   0.3825
H882     H     0.689   0.6175   0.4279
Ti883     Ti     0.6148   0.6148   0.3852
V884     V     0.5654   0.5654   0.4346
H885     H     0.689   0.6175   0.5721
H886     H     0.6175   0.5721   0.689
H887     H     0.5721   0.689   0.6175
Ti888     Ti     0.6148   0.6148   0.6148
V889     V     0.5654   0.5654   0.5654
Er890     Er     0.5   0.6159   0.5428
H891     H     0.311   0.6175   0.5721
H892     H     0.3825   0.5721   0.689
H893     H     0.4279   0.689   0.6175
Ti894     Ti     0.3852   0.6148   0.6148
V895     V     0.4346   0.5654   0.5654
Er896     Er     0.3841   0.5428   0.5
Na897     Na     0.1218   0.5684   0.3853
Na898     Na     0.3853   0.1218   0.5684
Na899     Na     0.1218   0.4316   0.3853
Na900     Na     0.3853   0.1218   0.4316
Na901     Na     0.5684   0.3853   0.1218
Na902     Na     0.4316   0.3853   0.1218
Na903     Na     0.4316   0.3853   0.8782
Na904     Na     0.8782   0.4316   0.3853
Na905     Na     0.3853   0.8782   0.4316
Na906     Na     0.5684   0.3853   0.8782
Na907     Na     0.8782   0.5684   0.3853
Na908     Na     0.3853   0.8782   0.5684
Na909     Na     0.4316   0.6147   0.1218
Na910     Na     0.1218   0.4316   0.6147
Na911     Na     0.6147   0.1218   0.4316
Na912     Na     0.5684   0.6147   0.1218
Na913     Na     0.1218   0.5684   0.6147
Na914     Na     0.6147   0.1218   0.5684
Na915     Na     0.5684   0.6147   0.8782
Na916     Na     0.8782   0.5684   0.6147
Na917     Na     0.6147   0.8782   0.5684
Na918     Na     0.4316   0.6147   0.8782
Na919     Na     0.8782   0.4316   0.6147
Na920     Na     0.6147   0.8782   0.4316
loop_
_geom_bond_atom_site_label_1
_geom_bond_atom_site_label_2
_geom_bond_distance
_geom_bond_site_symmetry_2
_ccdc_geom_bond_type
O1     Al72    10.0   1_554     S
O1     Al78    10.0   .     S
O1     B468    10.001   .     S
O1     B462    10.001   1_455     S
O2     Al68    10.0   1_545     S
O2     Al74    10.0   .     S
O2     B438    10.001   .     S
O2     B432    10.001   1_554     S
O3     Al70    10.0   1_455     S
O3     Al76    10.0   .     S
O3     B453    10.001   .     S
O3     B447    10.001   1_545     S
O4     Al66    10.0   .     S
O4     Al84    10.0   .     S
O4     B838    10.001   .     S
O4     B832    10.001   .     S
O5     Al62    10.0   .     S
O5     Al82    10.0   .     S
O5     B808    10.001   .     S
O5     B802    10.001   .     S
O6     Al64    10.0   .     S
O6     Al80    10.0   .     S
O6     B817    10.001   .     S
O6     B823    10.001   .     S
O7     Al71    10.0   1_554     S
O7     Al77    10.0   .     S
O7     B423    10.001   .     S
O7     B417    10.001   1_455     S
O8     Al67    10.0   1_545     S
O8     Al73    10.0   .     S
O8     B393    10.001   .     S
O8     B387    10.001   1_554     S
O9     Al69    10.0   1_455     S
O9     Al75    10.0   .     S
O9     B408    10.001   .     S
O9     B402    10.001   1_545     S
O10     Al65    10.0   .     S
O10     Al83    10.0   .     S
O10     B778    10.001   .     S
O10     B772    10.001   .     S
O11     Al61    10.0   .     S
O11     Al81    10.0   .     S
O11     B763    10.001   .     S
O11     B757    10.001   .     S
O12     Al63    10.0   .     S
O12     Al79    10.0   .     S
O12     B793    10.001   .     S
O12     B787    10.001   .     S
Mn13     Cr115    10.0   .     S
Mn13     Cl14    9.999   .     S
Mn13     Ca318    10.0   .     S
Mn13     Ca321    10.0   .     S
Cl14     Si659    10.0   .     S
Cl14     Si647    10.0   .     S
Cl14     Ne226    10.0   .     S
Mn15     Cr123    10.0   .     S
Mn15     Cl16    9.999   .     S
Mn15     Ca316    10.0   .     S
Mn15     Ca319    10.0   .     S
Cl16     Si661    10.0   .     S
Cl16     Si651    10.0   .     S
Cl16     Ne240    10.0   .     S
Mn17     Cr131    10.0   .     S
Mn17     Cl18    9.999   .     S
Mn17     Ca317    10.0   .     S
Mn17     Ca320    10.0   .     S
Cl18     Si663    10.0   .     S
Cl18     Si655    10.0   .     S
Cl18     Ne254    10.0   .     S
Mn19     Cr139    10.0   .     S
Mn19     Cl20    9.999   .     S
Mn19     Ca315    10.0   .     S
Mn19     Ca324    10.0   .     S
Cl20     Si665    10.0   .     S
Cl20     Si635    10.0   .     S
Cl20     Ne184    10.0   .     S
Mn21     Cr147    10.0   .     S
Mn21     Cl22    9.999   .     S
Mn21     Ca313    10.0   .     S
Mn21     Ca322    10.0   .     S
Cl22     Si667    10.0   .     S
Cl22     Si639    10.0   .     S
Cl22     Ne198    10.0   .     S
Mn23     Cr151    10.0   .     S
Mn23     Cl24    9.999   .     S
Mn23     Ca314    10.0   .     S
Mn23     Ca323    10.0   .     S
Cl24     Si669    10.0   .     S
Cl24     Si645    10.0   .     S
Cl24     Ne212    10.0   .     S
Mn25     Cr87    10.0   .     S
Mn25     Cl26    9.999   .     S
Mn25     Ca685    10.0   .     S
Mn25     Ca700    10.0   1_554     S
Cl26     Si295    10.0   .     S
Cl26     Si265    10.0   1_554     S
Cl26     Ne624    10.0   .     S
Mn27     Cr91    10.0   .     S
Mn27     Cl28    9.999   .     S
Mn27     Ca683    10.0   .     S
Mn27     Ca695    10.0   1_545     S
Cl28     Si297    10.0   .     S
Cl28     Si269    10.0   1_545     S
Cl28     Ne561    10.0   .     S
Mn29     Cr95    10.0   .     S
Mn29     Cl30    9.999   .     S
Mn29     Ca684    10.0   .     S
Mn29     Ca697    10.0   1_455     S
Cl30     Si299    10.0   .     S
Cl30     Si273    10.0   1_455     S
Cl30     Ne575    10.0   .     S
Mn31     Cr171    10.0   .     S
Mn31     Cl32    9.999   .     S
Mn31     Ca688    10.0   .     S
Mn31     Ca693    10.0   1_554     S
Cl32     Si289    10.0   .     S
Cl32     Si277    10.0   1_554     S
Cl32     Ne631    10.0   .     S
Mn33     Cr175    10.0   .     S
Mn33     Cl34    9.999   .     S
Mn33     Ca686    10.0   .     S
Mn33     Ca690    10.0   1_545     S
Cl34     Si291    10.0   .     S
Cl34     Si281    10.0   1_545     S
Cl34     Ne596    10.0   .     S
Mn35     Cr179    10.0   .     S
Mn35     Cl36    9.999   .     S
Mn35     Ca687    10.0   .     S
Mn35     Ca692    10.0   1_455     S
Cl36     Si293    10.0   .     S
Cl36     Si287    10.0   1_455     S
Cl36     Ne617    10.0   .     S
Mn37     Cr135    10.0   .     S
Mn37     Cl38    9.999   .     S
Mn37     Ca327    10.0   .     S
Mn37     Ca336    10.0   .     S
Cl38     Si677    10.0   .     S
Cl38     Si637    10.0   .     S
Cl38     Ne233    10.0   .     S
Mn39     Cr143    10.0   .     S
Mn39     Cl40    9.999   .     S
Mn39     Ca325    10.0   .     S
Mn39     Ca334    10.0   .     S
Cl40     Si679    10.0   .     S
Cl40     Si641    10.0   .     S
Cl40     Ne247    10.0   .     S
Mn41     Cr155    10.0   .     S
Mn41     Cl42    9.999   .     S
Mn41     Ca326    10.0   .     S
Mn41     Ca335    10.0   .     S
Cl42     Si681    10.0   .     S
Cl42     Si643    10.0   .     S
Cl42     Ne261    10.0   .     S
Mn43     Cr111    10.0   .     S
Mn43     Cl44    9.999   .     S
Mn43     Ca330    10.0   .     S
Mn43     Ca333    10.0   .     S
Cl44     Si671    10.0   .     S
Cl44     Si649    10.0   .     S
Cl44     Ne191    10.0   .     S
Mn45     Cr119    10.0   .     S
Mn45     Cl46    9.999   .     S
Mn45     Ca328    10.0   .     S
Mn45     Ca331    10.0   .     S
Cl46     Si673    10.0   .     S
Cl46     Si653    10.0   .     S
Cl46     Ne205    10.0   .     S
Mn47     Cr127    10.0   .     S
Mn47     Cl48    9.999   .     S
Mn47     Ca329    10.0   .     S
Mn47     Ca332    10.0   .     S
Cl48     Si675    10.0   .     S
Cl48     Si657    10.0   .     S
Cl48     Ne219    10.0   .     S
Mn49     Cr103    10.0   .     S
Mn49     Cl50    9.999   .     S
Mn49     Ca696    10.0   .     S
Mn49     Ca701    10.0   1_545     S
Cl50     Si303    10.0   .     S
Cl50     Si283    10.0   1_545     S
Cl50     Ne603    10.0   .     S
Mn51     Cr107    10.0   .     S
Mn51     Cl52    9.999   .     S
Mn51     Ca698    10.0   .     S
Mn51     Ca702    10.0   1_455     S
Cl52     Si305    10.0   .     S
Cl52     Si285    10.0   1_455     S
Cl52     Ne610    10.0   .     S
Mn53     Cr159    10.0   .     S
Mn53     Cl54    9.999   .     S
Mn53     Ca694    10.0   .     S
Mn53     Ca706    10.0   1_554     S
Cl54     Si307    10.0   .     S
Cl54     Si267    10.0   1_554     S
Cl54     Ne554    10.0   .     S
Mn55     Cr163    10.0   .     S
Mn55     Cl56    9.999   .     S
Mn55     Ca689    10.0   .     S
Mn55     Ca704    10.0   1_545     S
Cl56     Si309    10.0   .     S
Cl56     Si271    10.0   1_545     S
Cl56     Ne568    10.0   .     S
Mn57     Cr167    10.0   .     S
Mn57     Cl58    9.999   .     S
Mn57     Ca691    10.0   .     S
Mn57     Ca705    10.0   1_455     S
Cl58     Si311    10.0   .     S
Cl58     Si275    10.0   1_455     S
Cl58     Ne582    10.0   .     S
Mn59     Cr99    10.0   .     S
Mn59     Cl60    9.999   .     S
Mn59     Ca699    10.0   .     S
Mn59     Ca703    10.0   1_554     S
Cl60     Si301    10.0   .     S
Cl60     Si279    10.0   1_554     S
Cl60     Ne589    10.0   .     S
Al61     Ar650    10.0   .     S
Al61     Ar672    10.0   .     S
Al61     Al62    10.0   1_655     S
Al62     Ar678    10.0   .     S
Al62     Ar638    10.0   .     S
Al62     Al61    10.0   1_455     S
Al63     Ar654    10.0   .     S
Al63     Ar674    10.0   .     S
Al63     Al64    10.0   1_556     S
Al64     Ar680    10.0   .     S
Al64     Ar642    10.0   .     S
Al64     Al63    10.0   1_554     S
Al65     Ar658    10.0   .     S
Al65     Ar676    10.0   .     S
Al65     Al66    10.0   1_565     S
Al66     Ar682    10.0   .     S
Al66     Ar644    10.0   .     S
Al66     Al65    10.0   1_545     S
Al67     O8    10.0   1_565     S
Al67     Ar308    10.0   .     S
Al67     Ar268    10.0   1_554     S
Al67     Al68    10.0   .     S
Al68     O2    10.0   1_565     S
Al68     Ar302    10.0   .     S
Al68     Ar280    10.0   1_554     S
Al69     O9    10.0   1_655     S
Al69     Ar310    10.0   .     S
Al69     Ar272    10.0   1_545     S
Al69     Al70    10.0   .     S
Al70     O3    10.0   1_655     S
Al70     Ar304    10.0   .     S
Al70     Ar284    10.0   1_545     S
Al71     O7    10.0   1_556     S
Al71     Ar312    10.0   .     S
Al71     Ar276    10.0   1_455     S
Al71     Al72    10.0   .     S
Al72     O1    10.0   1_556     S
Al72     Ar306    10.0   .     S
Al72     Ar286    10.0   1_455     S
Al73     Ar290    10.0   .     S
Al73     Ar278    10.0   1_554     S
Al73     Al74    10.0   .     S
Al74     Ar296    10.0   .     S
Al74     Ar266    10.0   1_554     S
Al75     Ar292    10.0   .     S
Al75     Ar282    10.0   1_545     S
Al75     Al76    10.0   .     S
Al76     Ar298    10.0   .     S
Al76     Ar270    10.0   1_545     S
Al77     Ar294    10.0   .     S
Al77     Ar288    10.0   1_455     S
Al77     Al78    10.0   .     S
Al78     Ar300    10.0   .     S
Al78     Ar274    10.0   1_455     S
Al79     Ar668    10.0   .     S
Al79     Ar640    10.0   .     S
Al79     Al80    10.0   1_556     S
Al80     Ar652    10.0   .     S
Al80     Ar662    10.0   .     S
Al80     Al79    10.0   1_554     S
Al81     Ar666    10.0   .     S
Al81     Ar636    10.0   .     S
Al81     Al82    10.0   1_655     S
Al82     Ar648    10.0   .     S
Al82     Ar660    10.0   .     S
Al82     Al81    10.0   1_455     S
Al83     Ar670    10.0   .     S
Al83     Ar646    10.0   .     S
Al83     Al84    10.0   1_565     S
Al84     Ar656    10.0   .     S
Al84     Ar664    10.0   .     S
Al84     Al83    10.0   1_545     S
Sc85     Ca316    10.0   .     S
Sc85     K88    10.0   .     S
Sc85     Mg627    10.0   .     S
Sc85     Si661    10.0   .     S
Sc86     Ca313    10.0   .     S
Sc86     K88    10.0   1_556     S
Sc86     Mg626    10.0   .     S
Sc86     Si667    10.0   .     S
Cr87     Ar662    10.0   .     S
Cr87     Ar668    10.0   1_554     S
Cr87     K88    10.0   .     S
K88     Sc86    10.0   1_554     S
K88     Ne624    10.001   .     S
Sc89     Ca317    10.0   .     S
Sc89     K92    10.0   .     S
Sc89     Mg564    10.0   .     S
Sc89     Si663    10.0   .     S
Sc90     Ca314    10.0   .     S
Sc90     K92    10.0   1_565     S
Sc90     Mg563    10.0   .     S
Sc90     Si669    10.0   .     S
Cr91     Ar664    10.0   .     S
Cr91     Ar670    10.0   1_545     S
Cr91     K92    10.0   .     S
K92     Sc90    10.0   1_545     S
K92     Ne561    10.001   .     S
Sc93     Ca318    10.0   .     S
Sc93     K96    10.0   .     S
Sc93     Mg578    10.0   .     S
Sc93     Si659    10.0   .     S
Sc94     Ca315    10.0   .     S
Sc94     K96    10.0   1_655     S
Sc94     Mg577    10.0   .     S
Sc94     Si665    10.0   .     S
Cr95     Ar660    10.0   .     S
Cr95     Ar666    10.0   1_455     S
Cr95     K96    10.0   .     S
K96     Sc94    10.0   1_455     S
K96     Ne575    10.001   .     S
Sc97     Ca319    10.0   .     S
Sc97     K100    10.0   .     S
Sc97     Mg592    10.0   .     S
Sc97     Si651    10.0   .     S
Sc98     Ca322    10.0   .     S
Sc98     K100    10.0   1_556     S
Sc98     Mg591    10.0   .     S
Sc98     Si639    10.0   .     S
Cr99     Ar652    10.0   .     S
Cr99     Ar640    10.0   1_554     S
Cr99     K100    10.0   .     S
K100     Sc98    10.0   1_554     S
K100     Ne589    10.001   .     S
Sc101     Ca320    10.0   .     S
Sc101     K104    10.0   .     S
Sc101     Mg606    10.0   .     S
Sc101     Si655    10.0   .     S
Sc102     Ca323    10.0   .     S
Sc102     K104    10.0   1_565     S
Sc102     Mg605    10.0   .     S
Sc102     Si645    10.0   .     S
Cr103     Ar656    10.0   .     S
Cr103     Ar646    10.0   1_545     S
Cr103     K104    10.0   .     S
K104     Sc102    10.0   1_545     S
K104     Ne603    10.001   .     S
Sc105     Ca321    10.0   .     S
Sc105     K108    10.0   .     S
Sc105     Mg613    10.0   .     S
Sc105     Si647    10.0   .     S
Sc106     Ca324    10.0   .     S
Sc106     K108    10.0   1_655     S
Sc106     Mg612    10.0   .     S
Sc106     Si635    10.0   .     S
Cr107     Ar648    10.0   .     S
Cr107     Ar636    10.0   1_455     S
Cr107     K108    10.0   .     S
K108     Sc106    10.0   1_455     S
K108     Ne610    10.001   .     S
Sc109     Ca701    10.0   .     S
Sc109     K112    10.0   .     S
Sc109     Mg194    10.0   .     S
Sc109     Si283    10.0   .     S
Sc110     Ca704    10.0   .     S
Sc110     K112    10.0   .     S
Sc110     Mg193    10.0   .     S
Sc110     Si271    10.0   .     S
Cr111     Ar272    10.0   .     S
Cr111     Ar284    10.0   .     S
Cr111     K112    10.0   .     S
K112     Ne191    10.001   .     S
Sc113     Ca683    10.0   .     S
Sc113     K116    10.0   .     S
Sc113     Mg229    10.0   .     S
Sc113     Si297    10.0   .     S
Sc114     Ca686    10.0   .     S
Sc114     K116    10.0   .     S
Sc114     Mg228    10.0   .     S
Sc114     Si291    10.0   .     S
Cr115     Ar292    10.0   .     S
Cr115     Ar298    10.0   .     S
Cr115     K116    10.0   .     S
K116     Ne226    10.001   .     S
Sc117     Ca702    10.0   .     S
Sc117     K120    10.0   .     S
Sc117     Mg208    10.0   .     S
Sc117     Si285    10.0   .     S
Sc118     Ca705    10.0   .     S
Sc118     K120    10.0   .     S
Sc118     Mg207    10.0   .     S
Sc118     Si275    10.0   .     S
Cr119     Ar276    10.0   .     S
Cr119     Ar286    10.0   .     S
Cr119     K120    10.0   .     S
K120     Ne205    10.001   .     S
Sc121     Ca684    10.0   .     S
Sc121     K124    10.0   .     S
Sc121     Mg243    10.0   .     S
Sc121     Si299    10.0   .     S
Sc122     Ca687    10.0   .     S
Sc122     K124    10.0   .     S
Sc122     Mg242    10.0   .     S
Sc122     Si293    10.0   .     S
Cr123     Ar294    10.0   .     S
Cr123     Ar300    10.0   .     S
Cr123     K124    10.0   .     S
K124     Ne240    10.001   .     S
Sc125     Ca703    10.0   .     S
Sc125     K128    10.0   .     S
Sc125     Mg222    10.0   .     S
Sc125     Si279    10.0   .     S
Sc126     Ca706    10.0   .     S
Sc126     K128    10.0   .     S
Sc126     Mg221    10.0   .     S
Sc126     Si267    10.0   .     S
Cr127     Ar268    10.0   .     S
Cr127     Ar280    10.0   .     S
Cr127     K128    10.0   .     S
K128     Ne219    10.001   .     S
Sc129     Ca685    10.0   .     S
Sc129     K132    10.0   .     S
Sc129     Mg257    10.0   .     S
Sc129     Si295    10.0   .     S
Sc130     Ca688    10.0   .     S
Sc130     K132    10.0   .     S
Sc130     Mg256    10.0   .     S
Sc130     Si289    10.0   .     S
Cr131     Ar290    10.0   .     S
Cr131     Ar296    10.0   .     S
Cr131     K132    10.0   .     S
K132     Ne254    10.001   .     S
Sc133     Ca695    10.0   .     S
Sc133     K136    10.0   .     S
Sc133     Mg236    10.0   .     S
Sc133     Si269    10.0   .     S
Sc134     Ca690    10.0   .     S
Sc134     K136    10.0   .     S
Sc134     Mg235    10.0   .     S
Sc134     Si281    10.0   .     S
Cr135     Ar270    10.0   .     S
Cr135     Ar282    10.0   .     S
Cr135     K136    10.0   .     S
K136     Ne233    10.001   .     S
Sc137     Ca696    10.0   .     S
Sc137     K140    10.0   .     S
Sc137     Mg187    10.0   .     S
Sc137     Si303    10.0   .     S
Sc138     Ca689    10.0   .     S
Sc138     K140    10.0   .     S
Sc138     Mg186    10.0   .     S
Sc138     Si309    10.0   .     S
Cr139     Ar304    10.0   .     S
Cr139     Ar310    10.0   .     S
Cr139     K140    10.0   .     S
K140     Ne184    10.001   .     S
Sc141     Ca697    10.0   .     S
Sc141     K144    10.0   .     S
Sc141     Mg250    10.0   .     S
Sc141     Si273    10.0   .     S
Sc142     Ca692    10.0   .     S
Sc142     K144    10.0   .     S
Sc142     Mg249    10.0   .     S
Sc142     Si287    10.0   .     S
Cr143     Ar274    10.0   .     S
Cr143     Ar288    10.0   .     S
Cr143     K144    10.0   .     S
K144     Ne247    10.001   .     S
Sc145     Ca698    10.0   .     S
Sc145     K148    10.0   .     S
Sc145     Mg201    10.0   .     S
Sc145     Si305    10.0   .     S
Sc146     Ca691    10.0   .     S
Sc146     K148    10.0   .     S
Sc146     Mg200    10.0   .     S
Sc146     Si311    10.0   .     S
Cr147     Ar306    10.0   .     S
Cr147     Ar312    10.0   .     S
Cr147     K148    10.0   .     S
K148     Ne198    10.001   .     S
Sc149     Ca699    10.0   .     S
Sc149     K152    10.0   .     S
Sc149     Mg215    10.0   .     S
Sc149     Si301    10.0   .     S
Sc150     Ca694    10.0   .     S
Sc150     K152    10.0   .     S
Sc150     Mg214    10.0   .     S
Sc150     Si307    10.0   .     S
Cr151     Ar302    10.0   .     S
Cr151     Ar308    10.0   .     S
Cr151     K152    10.0   .     S
K152     Ne212    10.001   .     S
Sc153     Ca700    10.0   .     S
Sc153     K156    10.0   .     S
Sc153     Mg264    10.0   .     S
Sc153     Si265    10.0   .     S
Sc154     Ca693    10.0   .     S
Sc154     K156    10.0   .     S
Sc154     Mg263    10.0   .     S
Sc154     Si277    10.0   .     S
Cr155     Ar266    10.0   .     S
Cr155     Ar278    10.0   .     S
Cr155     K156    10.0   .     S
K156     Ne261    10.001   .     S
Sc157     Ca334    10.0   .     S
Sc157     K160    10.0   .     S
Sc157     Mg557    10.0   .     S
Sc157     Si641    10.0   .     S
Sc158     Ca331    10.0   .     S
Sc158     K160    10.0   1_556     S
Sc158     Mg556    10.0   .     S
Sc158     Si653    10.0   .     S
Cr159     Ar642    10.0   .     S
Cr159     Ar654    10.0   1_554     S
Cr159     K160    10.0   .     S
K160     Sc158    10.0   1_554     S
K160     Ne554    10.001   .     S
Sc161     Ca335    10.0   .     S
Sc161     K164    10.0   .     S
Sc161     Mg571    10.0   .     S
Sc161     Si643    10.0   .     S
Sc162     Ca332    10.0   .     S
Sc162     K164    10.0   1_565     S
Sc162     Mg570    10.0   .     S
Sc162     Si657    10.0   .     S
Cr163     Ar644    10.0   .     S
Cr163     Ar658    10.0   1_545     S
Cr163     K164    10.0   .     S
K164     Sc162    10.0   1_545     S
K164     Ne568    10.001   .     S
Sc165     Ca336    10.0   .     S
Sc165     K168    10.0   .     S
Sc165     Mg585    10.0   .     S
Sc165     Si637    10.0   .     S
Sc166     Ca333    10.0   .     S
Sc166     K168    10.0   1_655     S
Sc166     Mg584    10.0   .     S
Sc166     Si649    10.0   .     S
Cr167     Ar638    10.0   .     S
Cr167     Ar650    10.0   1_455     S
Cr167     K168    10.0   .     S
K168     Sc166    10.0   1_455     S
K168     Ne582    10.001   .     S
Sc169     Ca325    10.0   .     S
Sc169     K172    10.0   .     S
Sc169     Mg634    10.0   .     S
Sc169     Si679    10.0   .     S
Sc170     Ca328    10.0   .     S
Sc170     K172    10.0   1_556     S
Sc170     Mg633    10.0   .     S
Sc170     Si673    10.0   .     S
Cr171     Ar680    10.0   .     S
Cr171     Ar674    10.0   1_554     S
Cr171     K172    10.0   .     S
K172     Sc170    10.0   1_554     S
K172     Ne631    10.001   .     S
Sc173     Ca326    10.0   .     S
Sc173     K176    10.0   .     S
Sc173     Mg599    10.0   .     S
Sc173     Si681    10.0   .     S
Sc174     Ca329    10.0   .     S
Sc174     K176    10.0   1_565     S
Sc174     Mg598    10.0   .     S
Sc174     Si675    10.0   .     S
Cr175     Ar682    10.0   .     S
Cr175     Ar676    10.0   1_545     S
Cr175     K176    10.0   .     S
K176     Sc174    10.0   1_545     S
K176     Ne596    10.001   .     S
Sc177     Ca327    10.0   .     S
Sc177     K180    10.0   .     S
Sc177     Mg620    10.0   .     S
Sc177     Si677    10.0   .     S
Sc178     Ca330    10.0   .     S
Sc178     K180    10.0   1_655     S
Sc178     Mg619    10.0   .     S
Sc178     Si671    10.0   .     S
Cr179     Ar678    10.0   .     S
Cr179     Ar672    10.0   1_455     S
Cr179     K180    10.0   .     S
K180     Sc178    10.0   1_455     S
K180     Ne617    10.001   .     S
Li181     C183    9.999   .     S
Li181     Be837    10.0   .     S
Li181     Li182    10.0   .     S
Li181     H861    10.0   .     S
Li182     C185    9.999   .     S
Li182     Be841    10.0   .     S
Li182     H855    10.0   .     S
C183     Ne184    9.999   .     S
C183     Mg186    10.0   .     S
C183     F746    10.0   .     S
Ne184     C185    9.999   .     S
C185     Mg187    10.0   .     S
C185     F734    10.0   .     S
Mg186     P365    10.0   .     S
Mg186     N836    9.999   .     S
Mg187     P375    10.0   .     S
Mg187     N840    9.999   .     S
Li188     C190    9.999   .     S
Li188     Be781    10.0   .     S
Li188     Li189    10.0   .     S
Li188     H882    10.0   .     S
Li189     C192    9.999   .     S
Li189     Be777    10.0   .     S
Li189     H885    10.0   .     S
C190     Ne191    9.999   .     S
C190     Mg194    10.0   .     S
C190     F710    10.0   .     S
Ne191     C192    9.999   .     S
C192     Mg193    10.0   .     S
C192     F722    10.0   .     S
Mg193     P377    10.0   .     S
Mg193     N776    9.999   .     S
Mg194     P383    10.0   .     S
Mg194     N780    9.999   .     S
Li195     C197    9.999   .     S
Li195     Be807    10.0   .     S
Li195     Li196    10.0   .     S
Li195     H892    10.0   .     S
Li196     C199    9.999   .     S
Li196     Be811    10.0   .     S
Li196     H868    10.0   .     S
C197     Ne198    9.999   .     S
C197     Mg200    10.0   .     S
C197     F748    10.0   .     S
Ne198     C199    9.999   .     S
C199     Mg201    10.0   .     S
C199     F736    10.0   .     S
Mg200     P361    10.0   .     S
Mg200     N806    9.999   .     S
Mg201     P367    10.0   .     S
Mg201     N810    9.999   .     S
Li202     C204    9.999   .     S
Li202     Be766    10.0   .     S
Li202     Li203    10.0   .     S
Li202     H862    10.0   .     S
Li203     C206    9.999   .     S
Li203     Be762    10.0   .     S
Li203     H886    10.0   .     S
C204     Ne205    9.999   .     S
C204     Mg208    10.0   .     S
C204     F712    10.0   .     S
Ne205     C206    9.999   .     S
C206     Mg207    10.0   .     S
C206     F724    10.0   .     S
Mg207     P369    10.0   .     S
Mg207     N761    9.999   .     S
Mg208     P379    10.0   .     S
Mg208     N765    9.999   .     S
Li209     C211    9.999   .     S
Li209     Be822    10.0   .     S
Li209     Li210    10.0   .     S
Li209     H881    10.0   .     S
Li210     C213    9.999   .     S
Li210     Be826    10.0   .     S
Li210     H875    10.0   .     S
C211     Ne212    9.999   .     S
C211     Mg214    10.0   .     S
C211     F744    10.0   .     S
Ne212     C213    9.999   .     S
C213     Mg215    10.0   .     S
C213     F732    10.0   .     S
Mg214     P363    10.0   .     S
Mg214     N821    9.999   .     S
Mg215     P371    10.0   .     S
Mg215     N825    9.999   .     S
Li216     C218    9.999   .     S
Li216     Be796    10.0   .     S
Li216     Li217    10.0   .     S
Li216     H893    10.0   .     S
Li217     C220    9.999   .     S
Li217     Be792    10.0   .     S
Li217     H887    10.0   .     S
C218     Ne219    9.999   .     S
C218     Mg222    10.0   .     S
C218     F708    10.0   .     S
Ne219     C220    9.999   .     S
C220     Mg221    10.0   .     S
C220     F720    10.0   .     S
Mg221     P373    10.0   .     S
Mg221     N791    9.999   .     S
Mg222     P381    10.0   .     S
Mg222     N795    9.999   .     S
Li223     C225    9.999   .     S
Li223     Be835    10.0   .     S
Li223     Li224    10.0   .     S
Li223     H845    10.0   .     S
Li224     C227    9.999   .     S
Li224     Be831    10.0   .     S
Li224     H866    10.0   .     S
C225     Ne226    9.999   .     S
C225     Mg229    10.0   .     S
C225     F740    10.0   .     S
Ne226     C227    9.999   .     S
C227     Mg228    10.0   .     S
C227     F752    10.0   .     S
Mg228     P341    10.0   .     S
Mg228     N830    9.999   .     S
Mg229     P347    10.0   .     S
Mg229     N834    9.999   .     S
Li230     C232    9.999   .     S
Li230     Be771    10.0   .     S
Li230     Li231    10.0   .     S
Li230     H891    10.0   .     S
Li231     C234    9.999   .     S
Li231     Be775    10.0   .     S
Li231     H874    10.0   .     S
C232     Ne233    9.999   .     S
C232     Mg235    10.0   .     S
C232     F728    10.0   .     S
Ne233     C234    9.999   .     S
C234     Mg236    10.0   .     S
C234     F716    10.0   .     S
Mg235     P359    10.0   .     S
Mg235     N770    9.999   .     S
Mg236     P353    10.0   .     S
Mg236     N774    9.999   .     S
Li237     C239    9.999   .     S
Li237     Be805    10.0   .     S
Li237     Li238    10.0   .     S
Li237     H846    10.0   .     S
Li238     C241    9.999   .     S
Li238     Be801    10.0   .     S
Li238     H873    10.0   .     S
C239     Ne240    9.999   .     S
C239     Mg243    10.0   .     S
C239     F742    10.0   .     S
Ne240     C241    9.999   .     S
C241     Mg242    10.0   .     S
C241     F754    10.0   .     S
Mg242     P337    10.0   .     S
Mg242     N800    9.999   .     S
Mg243     P343    10.0   .     S
Mg243     N804    9.999   .     S
Li244     C246    9.999   .     S
Li244     Be756    10.0   .     S
Li244     Li245    10.0   .     S
Li244     H880    10.0   .     S
Li245     C248    9.999   .     S
Li245     Be760    10.0   .     S
Li245     H854    10.0   .     S
C246     Ne247    9.999   .     S
C246     Mg249    10.0   .     S
C246     F730    10.0   .     S
Ne247     C248    9.999   .     S
C248     Mg250    10.0   .     S
C248     F718    10.0   .     S
Mg249     P355    10.0   .     S
Mg249     N755    9.999   .     S
Mg250     P349    10.0   .     S
Mg250     N759    9.999   .     S
Li251     C253    9.999   .     S
Li251     Be820    10.0   .     S
Li251     Li252    10.0   .     S
Li251     H847    10.0   .     S
Li252     C255    9.999   .     S
Li252     Be816    10.0   .     S
Li252     H853    10.0   .     S
C253     Ne254    9.999   .     S
C253     Mg257    10.0   .     S
C253     F738    10.0   .     S
Ne254     C255    9.999   .     S
C255     Mg256    10.0   .     S
C255     F750    10.0   .     S
Mg256     P339    10.0   .     S
Mg256     N815    9.999   .     S
Mg257     P345    10.0   .     S
Mg257     N819    9.999   .     S
Li258     C260    9.999   .     S
Li258     Be786    10.0   .     S
Li258     Li259    10.0   .     S
Li258     H860    10.0   .     S
Li259     C262    9.999   .     S
Li259     Be790    10.0   .     S
Li259     H867    10.0   .     S
C260     Ne261    9.999   .     S
C260     Mg263    10.0   .     S
C260     F726    10.0   .     S
Ne261     C262    9.999   .     S
C262     Mg264    10.0   .     S
C262     F714    10.0   .     S
Mg263     P357    10.0   .     S
Mg263     N785    9.999   .     S
Mg264     P351    10.0   .     S
Mg264     N789    9.999   .     S
Si265     Cl26    10.0   1_556     S
Si265     F352    10.0   .     S
Si265     Ar266    10.0   .     S
Ar266     Al74    10.0   1_556     S
Ar266     Na549    10.0   .     S
Si267     Cl54    10.0   1_556     S
Si267     F374    10.0   .     S
Si267     Ar268    10.0   .     S
Ar268     Al67    10.0   1_556     S
Ar268     Na543    10.0   .     S
Si269     Cl28    10.0   1_565     S
Si269     F354    10.0   .     S
Si269     Ar270    10.0   .     S
Ar270     Al76    10.0   1_565     S
Ar270     Na548    10.0   .     S
Si271     Cl56    10.0   1_565     S
Si271     F378    10.0   .     S
Si271     Ar272    10.0   .     S
Ar272     Al69    10.0   1_565     S
Ar272     Na542    10.0   .     S
Si273     Cl30    10.0   1_655     S
Si273     F350    10.0   .     S
Si273     Ar274    10.0   .     S
Ar274     Al78    10.0   1_655     S
Ar274     Na550    10.0   .     S
Si275     Cl58    10.0   1_655     S
Si275     F370    10.0   .     S
Si275     Ar276    10.0   .     S
Ar276     Al71    10.0   1_655     S
Ar276     Na544    10.0   .     S
Si277     Cl32    10.0   1_556     S
Si277     F358    10.0   .     S
Si277     Ar278    10.0   .     S
Ar278     Al73    10.0   1_556     S
Ar278     Na546    10.0   .     S
Si279     Cl60    10.0   1_556     S
Si279     F382    10.0   .     S
Si279     Ar280    10.0   .     S
Ar280     Al68    10.0   1_556     S
Ar280     Na540    10.0   .     S
Si281     Cl34    10.0   1_565     S
Si281     F360    10.0   .     S
Si281     Ar282    10.0   .     S
Ar282     Al75    10.0   1_565     S
Ar282     Na545    10.0   .     S
Si283     Cl50    10.0   1_565     S
Si283     F384    10.0   .     S
Si283     Ar284    10.0   .     S
Ar284     Al70    10.0   1_565     S
Ar284     Na539    10.0   .     S
Si285     Cl52    10.0   1_655     S
Si285     F380    10.0   .     S
Si285     Ar286    10.0   .     S
Ar286     Al72    10.0   1_655     S
Ar286     Na541    10.0   .     S
Si287     Cl36    10.0   1_655     S
Si287     F356    10.0   .     S
Si287     Ar288    10.0   .     S
Ar288     Al77    10.0   1_655     S
Ar288     Na547    10.0   .     S
Si289     F340    10.0   .     S
Si289     Ar290    10.0   .     S
Ar290     Na537    10.0   .     S
Si291     F342    10.0   .     S
Si291     Ar292    10.0   .     S
Ar292     Na536    10.0   .     S
Si293     F338    10.0   .     S
Si293     Ar294    10.0   .     S
Ar294     Na538    10.0   .     S
Si295     F346    10.0   .     S
Si295     Ar296    10.0   .     S
Ar296     Na534    10.0   .     S
Si297     F348    10.0   .     S
Si297     Ar298    10.0   .     S
Ar298     Na533    10.0   .     S
Si299     F344    10.0   .     S
Si299     Ar300    10.0   .     S
Ar300     Na535    10.0   .     S
Si301     F372    10.0   .     S
Si301     Ar302    10.0   .     S
Ar302     Na531    10.0   .     S
Si303     F376    10.0   .     S
Si303     Ar304    10.0   .     S
Ar304     Na530    10.0   .     S
Si305     F368    10.0   .     S
Si305     Ar306    10.0   .     S
Ar306     Na532    10.0   .     S
Si307     F364    10.0   .     S
Si307     Ar308    10.0   .     S
Ar308     Na528    10.0   .     S
Si309     F366    10.0   .     S
Si309     Ar310    10.0   .     S
Ar310     Na527    10.0   .     S
Si311     F362    10.0   .     S
Si311     Ar312    10.0   .     S
Ar312     Na529    10.0   .     S
Ca313     Na532    9.999   .     S
Ca313     Ca316    10.0   1_556     S
Ca314     Na531    9.999   .     S
Ca314     Ca317    10.0   1_565     S
Ca315     Na530    9.999   .     S
Ca315     Ca318    10.0   1_655     S
Ca316     Na535    9.999   .     S
Ca316     Ca313    10.0   1_554     S
Ca317     Na534    9.999   .     S
Ca317     Ca314    10.0   1_545     S
Ca318     Na533    9.999   .     S
Ca318     Ca315    10.0   1_455     S
Ca319     Na538    9.999   .     S
Ca319     Ca322    10.0   1_554     S
Ca320     Na537    9.999   .     S
Ca320     Ca323    10.0   1_545     S
Ca321     Na536    9.999   .     S
Ca321     Ca324    10.0   1_455     S
Ca322     Na529    9.999   .     S
Ca322     Ca319    10.0   1_556     S
Ca323     Na528    9.999   .     S
Ca323     Ca320    10.0   1_565     S
Ca324     Na527    9.999   .     S
Ca324     Ca321    10.0   1_655     S
Ca325     Na550    9.999   .     S
Ca325     Ca328    10.0   1_554     S
Ca326     Na549    9.999   .     S
Ca326     Ca329    10.0   1_545     S
Ca327     Na548    9.999   .     S
Ca327     Ca330    10.0   1_455     S
Ca328     Na541    9.999   .     S
Ca328     Ca325    10.0   1_556     S
Ca329     Na540    9.999   .     S
Ca329     Ca326    10.0   1_565     S
Ca330     Na539    9.999   .     S
Ca330     Ca327    10.0   1_655     S
Ca331     Na544    9.999   .     S
Ca331     Ca334    10.0   1_556     S
Ca332     Na543    9.999   .     S
Ca332     Ca335    10.0   1_565     S
Ca333     Na542    9.999   .     S
Ca333     Ca336    10.0   1_655     S
Ca334     Na547    9.999   .     S
Ca334     Ca331    10.0   1_554     S
Ca335     Na546    9.999   .     S
Ca335     Ca332    10.0   1_545     S
Ca336     Na545    9.999   .     S
Ca336     Ca333    10.0   1_455     S
P337     F338    9.999   .     S
P337     P715    10.0   .     S
P337     P753    10.0   .     S
F338     N421    10.0   .     S
F338     C618    10.0   .     S
P339     F340    9.999   .     S
P339     P717    10.0   .     S
P339     P749    10.0   .     S
F340     N391    10.0   .     S
F340     C632    10.0   .     S
P341     F342    9.999   .     S
P341     P713    10.0   .     S
P341     P751    10.0   .     S
F342     N406    10.0   .     S
F342     C597    10.0   .     S
P343     F344    9.999   .     S
P343     P739    10.0   .     S
P343     P741    10.0   .     S
F344     N466    10.0   .     S
F344     C576    10.0   .     S
P345     F346    9.999   .     S
P345     P741    10.0   .     S
P345     P737    10.0   .     S
F346     N436    10.0   .     S
F346     C625    10.0   .     S
P347     F348    9.999   .     S
P347     P737    10.0   .     S
P347     P739    10.0   .     S
F348     N451    10.0   .     S
F348     C562    10.0   .     S
P349     F350    9.999   .     S
P349     P733    10.0   .     S
P349     P717    10.0   .     S
F350     N460    10.0   .     S
F350     C574    10.0   .     S
P351     F352    9.999   .     S
P351     P735    10.0   .     S
P351     P713    10.0   .     S
F352     N430    10.0   .     S
F352     C623    10.0   .     S
P353     F354    9.999   .     S
P353     P731    10.0   .     S
P353     P715    10.0   .     S
F354     N445    10.0   .     S
F354     C560    10.0   .     S
P355     F356    9.999   .     S
P355     P709    10.0   .     S
P355     P729    10.0   .     S
F356     N415    10.0   .     S
F356     C616    10.0   .     S
P357     F358    9.999   .     S
P357     P711    10.0   .     S
P357     P725    10.0   .     S
F358     N385    10.0   .     S
F358     C630    10.0   .     S
P359     F360    9.999   .     S
P359     P707    10.0   .     S
P359     P727    10.0   .     S
F360     N400    10.0   .     S
F360     C595    10.0   .     S
P361     F362    9.999   .     S
P361     P727    10.0   .     S
P361     P747    10.0   .     S
F362     N425    10.0   .     S
F362     C583    10.0   .     S
P363     F364    9.999   .     S
P363     P729    10.0   .     S
P363     P743    10.0   .     S
F364     N395    10.0   .     S
F364     C555    10.0   .     S
P365     F366    9.999   .     S
P365     P725    10.0   .     S
P365     P745    10.0   .     S
F366     N410    10.0   .     S
F366     C569    10.0   .     S
P367     F368    9.999   .     S
P367     P751    10.0   .     S
P367     P735    10.0   .     S
F368     N470    10.0   .     S
F368     C611    10.0   .     S
P369     F370    9.999   .     S
P369     P721    10.0   .     S
P369     P723    10.0   .     S
F370     N419    10.0   .     S
F370     C581    10.0   .     S
P371     F372    9.999   .     S
P371     P753    10.0   .     S
P371     P731    10.0   .     S
F372     N440    10.0   .     S
F372     C590    10.0   .     S
P373     F374    9.999   .     S
P373     P723    10.0   .     S
P373     P719    10.0   .     S
F374     N389    10.0   .     S
F374     C553    10.0   .     S
P375     F376    9.999   .     S
P375     P749    10.0   .     S
P375     P733    10.0   .     S
F376     N455    10.0   .     S
F376     C604    10.0   .     S
P377     F378    9.999   .     S
P377     P719    10.0   .     S
P377     P721    10.0   .     S
F378     N404    10.0   .     S
F378     C567    10.0   .     S
P379     F380    9.999   .     S
P379     P745    10.0   .     S
P379     P711    10.0   .     S
F380     N464    10.0   .     S
F380     C609    10.0   .     S
P381     F382    9.999   .     S
P381     P747    10.0   .     S
P381     P707    10.0   .     S
F382     N434    10.0   .     S
F382     C588    10.0   .     S
P383     F384    9.999   .     S
P383     P743    10.0   .     S
P383     P709    10.0   .     S
F384     N449    10.0   .     S
F384     C602    10.0   .     S
N385     Mg571    9.999   .     S
N385     Be386    10.0   .     S
N385     Na546    10.001   .     S
Be386     H491    10.001   .     S
Be386     He388    10.0   .     S
Be386     Li566    10.0   .     S
B387     O8    10.001   1_556     S
B387     He388    10.0   .     S
B387     Na546    10.0   .     S
B387     Na543    10.0   1_545     S
He388     Be390    10.0   1_545     S
He388     S399    10.0   1_556     S
N389     Mg570    9.999   .     S
N389     Be390    10.0   .     S
N389     Na543    10.001   .     S
Be390     He388    10.0   1_565     S
Be390     H516    10.001   .     S
Be390     Li565    10.0   .     S
N391     Mg606    9.999   .     S
N391     Be392    10.0   .     S
N391     Na537    10.001   .     S
Be392     H486    10.001   .     S
Be392     He394    10.0   .     S
Be392     Li601    10.0   .     S
B393     He394    10.0   .     S
B393     Na537    10.0   .     S
B393     Na528    10.0   1_545     S
He394     Be396    10.0   1_545     S
He394     S399    10.0   .     S
N395     Mg605    9.999   .     S
N395     Be396    10.0   .     S
N395     Na528    10.001   .     S
Be396     He394    10.0   1_565     S
Be396     H512    10.001   .     S
Be396     Li600    10.0   .     S
Ce397     H512    10.0   .     S
Ce397     H516    10.0   1_554     S
Ce397     S399    10.0   1_565     S
Ce397     Er515    10.0   .     S
Ce398     H486    10.0   .     S
Ce398     H491    10.0   1_554     S
Ce398     S399    10.0   .     S
Ce398     Er489    10.0   .     S
S399     He388    10.0   1_554     S
S399     Ce397    10.0   1_545     S
N400     Mg585    9.999   .     S
N400     Be401    10.0   .     S
N400     Na545    10.001   .     S
Be401     H523    10.001   .     S
Be401     He403    10.0   .     S
Be401     Li580    10.0   .     S
B402     O9    10.001   1_565     S
B402     He403    10.0   .     S
B402     Na545    10.0   .     S
B402     Na542    10.0   1_455     S
He403     Be405    10.0   1_455     S
He403     S414    10.0   1_565     S
N404     Mg584    9.999   .     S
N404     Be405    10.0   .     S
N404     Na542    10.001   .     S
Be405     He403    10.0   1_655     S
Be405     H517    10.001   .     S
Be405     Li579    10.0   .     S
N406     Mg613    9.999   .     S
N406     Be407    10.0   .     S
N406     Na536    10.001   .     S
Be407     H506    10.001   .     S
Be407     He409    10.0   .     S
Be407     Li608    10.0   .     S
B408     He409    10.0   .     S
B408     Na536    10.0   .     S
B408     Na527    10.0   1_455     S
He409     Be411    10.0   1_455     S
He409     S414    10.0   .     S
N410     Mg612    9.999   .     S
N410     Be411    10.0   .     S
N410     Na527    10.001   .     S
Be411     He409    10.0   1_655     S
Be411     H492    10.001   .     S
Be411     Li607    10.0   .     S
Ce412     H492    10.0   .     S
Ce412     H517    10.0   1_545     S
Ce412     S414    10.0   1_655     S
Ce412     Er495    10.0   .     S
Ce413     H506    10.0   .     S
Ce413     H523    10.0   1_545     S
Ce413     S414    10.0   .     S
Ce413     Er503    10.0   .     S
S414     He403    10.0   1_545     S
S414     Ce412    10.0   1_455     S
N415     Mg557    9.999   .     S
N415     Be416    10.0   .     S
N415     Na547    10.001   .     S
Be416     H511    10.001   .     S
Be416     He418    10.0   .     S
Be416     Li552    10.0   .     S
B417     O7    10.001   1_655     S
B417     He418    10.0   .     S
B417     Na547    10.0   .     S
B417     Na544    10.0   1_554     S
He418     Be420    10.0   1_554     S
He418     S429    10.0   1_655     S
N419     Mg556    9.999   .     S
N419     Be420    10.0   .     S
N419     Na544    10.001   .     S
Be420     He418    10.0   1_556     S
Be420     H518    10.001   .     S
Be420     Li551    10.0   .     S
N421     Mg592    9.999   .     S
N421     Be422    10.0   .     S
N421     Na538    10.001   .     S
Be422     H498    10.001   .     S
Be422     He424    10.0   .     S
Be422     Li587    10.0   .     S
B423     He424    10.0   .     S
B423     Na538    10.0   .     S
B423     Na529    10.0   1_554     S
He424     Be426    10.0   1_554     S
He424     S429    10.0   .     S
N425     Mg591    9.999   .     S
N425     Be426    10.0   .     S
N425     Na529    10.001   .     S
Be426     He424    10.0   1_556     S
Be426     H524    10.001   .     S
Be426     Li586    10.0   .     S
Ce427     H524    10.0   .     S
Ce427     H518    10.0   1_455     S
Ce427     S429    10.0   1_556     S
Ce427     Er521    10.0   .     S
Ce428     H498    10.0   .     S
Ce428     H511    10.0   1_455     S
Ce428     S429    10.0   .     S
Ce428     Er501    10.0   .     S
S429     He418    10.0   1_455     S
S429     Ce427    10.0   1_554     S
N430     Mg599    9.999   .     S
N430     Be431    10.0   .     S
N430     Na549    10.001   .     S
Be431     H504    10.001   .     S
Be431     He433    10.0   .     S
Be431     Li593    10.0   .     S
B432     O2    10.001   1_556     S
B432     He433    10.0   .     S
B432     Na549    10.0   .     S
B432     Na540    10.0   1_545     S
He433     Be435    10.0   1_545     S
He433     S444    10.0   1_556     S
N434     Mg598    9.999   .     S
N434     Be435    10.0   .     S
N434     Na540    10.001   .     S
Be435     He433    10.0   1_565     S
Be435     H522    10.001   .     S
Be435     Li594    10.0   .     S
N436     Mg564    9.999   .     S
N436     Be437    10.0   .     S
N436     Na534    10.001   .     S
Be437     H478    10.001   .     S
Be437     He439    10.0   .     S
Be437     Li559    10.0   .     S
B438     He439    10.0   .     S
B438     Na534    10.0   .     S
B438     Na531    10.0   1_545     S
He439     Be441    10.0   1_545     S
He439     S444    10.0   .     S
N440     Mg563    9.999   .     S
N440     Be441    10.0   .     S
N440     Na531    10.001   .     S
Be441     He439    10.0   1_565     S
Be441     H497    10.001   .     S
Be441     Li558    10.0   .     S
Ce442     H497    10.0   .     S
Ce442     H522    10.0   1_554     S
Ce442     S444    10.0   1_565     S
Ce442     Er502    10.0   .     S
Ce443     H478    10.0   .     S
Ce443     H504    10.0   1_554     S
Ce443     S444    10.0   .     S
Ce443     Er475    10.0   .     S
S444     He433    10.0   1_554     S
S444     Ce442    10.0   1_545     S
N445     Mg620    9.999   .     S
N445     Be446    10.0   .     S
N445     Na548    10.001   .     S
Be446     H496    10.001   .     S
Be446     He448    10.0   .     S
Be446     Li614    10.0   .     S
B447     O3    10.001   1_565     S
B447     He448    10.0   .     S
B447     Na548    10.0   .     S
B447     Na539    10.0   1_455     S
He448     Be450    10.0   1_455     S
He448     S459    10.0   1_565     S
N449     Mg619    9.999   .     S
N449     Be450    10.0   .     S
N449     Na539    10.001   .     S
Be450     He448    10.0   1_655     S
Be450     H510    10.001   .     S
Be450     Li615    10.0   .     S
N451     Mg578    9.999   .     S
N451     Be452    10.0   .     S
N451     Na533    10.001   .     S
Be452     H479    10.001   .     S
Be452     He454    10.0   .     S
Be452     Li573    10.0   .     S
B453     He454    10.0   .     S
B453     Na533    10.0   .     S
B453     Na530    10.0   1_455     S
He454     Be456    10.0   1_455     S
He454     S459    10.0   .     S
N455     Mg577    9.999   .     S
N455     Be456    10.0   .     S
N455     Na530    10.001   .     S
Be456     He454    10.0   1_655     S
Be456     H485    10.001   .     S
Be456     Li572    10.0   .     S
Ce457     H485    10.0   .     S
Ce457     H510    10.0   1_545     S
Ce457     S459    10.0   1_655     S
Ce457     Er483    10.0   .     S
Ce458     H479    10.0   .     S
Ce458     H496    10.0   1_545     S
Ce458     S459    10.0   .     S
Ce458     Er476    10.0   .     S
S459     He448    10.0   1_545     S
S459     Ce457    10.0   1_455     S
N460     Mg634    9.999   .     S
N460     Be461    10.0   .     S
N460     Na550    10.001   .     S
Be461     H484    10.001   .     S
Be461     He463    10.0   .     S
Be461     Li628    10.0   .     S
B462     O1    10.001   1_655     S
B462     He463    10.0   .     S
B462     Na550    10.0   .     S
B462     Na541    10.0   1_554     S
He463     Be465    10.0   1_554     S
He463     S474    10.0   1_655     S
N464     Mg633    9.999   .     S
N464     Be465    10.0   .     S
N464     Na541    10.001   .     S
Be465     He463    10.0   1_556     S
Be465     H490    10.001   .     S
Be465     Li629    10.0   .     S
N466     Mg627    9.999   .     S
N466     Be467    10.0   .     S
N466     Na535    10.001   .     S
Be467     H480    10.001   .     S
Be467     He469    10.0   .     S
Be467     Li622    10.0   .     S
B468     He469    10.0   .     S
B468     Na535    10.0   .     S
B468     Na532    10.0   1_554     S
He469     Be471    10.0   1_554     S
He469     S474    10.0   .     S
N470     Mg626    9.999   .     S
N470     Be471    10.0   .     S
N470     Na532    10.001   .     S
Be471     He469    10.0   1_556     S
Be471     H505    10.001   .     S
Be471     Li621    10.0   .     S
Ce472     H505    10.0   .     S
Ce472     H490    10.0   1_455     S
Ce472     S474    10.0   1_556     S
Ce472     Er509    10.0   .     S
Ce473     H480    10.0   .     S
Ce473     H484    10.0   1_455     S
Ce473     S474    10.0   .     S
Ce473     Er477    10.0   .     S
S474     He463    10.0   1_455     S
S474     Ce472    10.0   1_554     S
Er475     V508    10.0   1_554     S
Er475     V482    10.0   .     S
Er475     Er502    10.0   1_545     S
Er476     V500    10.0   1_545     S
Er476     V482    10.0   .     S
Er476     Er483    10.0   1_455     S
Er477     V488    10.0   1_455     S
Er477     V482    10.0   .     S
Er477     Er509    10.0   1_554     S
H478     Li622    10.0   .     S
H478     Ti481    10.0   .     S
H479     Li559    10.0   .     S
H479     Ti481    10.0   .     S
H480     Li573    10.0   .     S
H480     Ti481    10.0   .     S
Ti481     V482    10.0   .     S
Er483     V514    10.0   1_545     S
Er483     V488    10.0   .     S
Er483     Er476    10.0   1_655     S
H484     Ce473    10.0   1_655     S
H484     Li572    10.0   .     S
H484     Ti487    10.0   .     S
H485     Li601    10.0   .     S
H485     Ti487    10.0   .     S
H486     Li628    10.0   .     S
H486     Ti487    10.0   .     S
Ti487     V488    10.0   .     S
V488     Er477    10.0   1_655     S
V488     Er489    10.0   .     S
Er489     V494    10.0   1_554     S
Er489     Er515    10.0   1_545     S
H490     Ce472    10.0   1_655     S
H490     Li607    10.0   .     S
H490     Ti493    10.0   .     S
H491     Ce398    10.0   1_556     S
H491     Li629    10.0   .     S
H491     Ti493    10.0   .     S
H492     Li566    10.0   .     S
H492     Ti493    10.0   .     S
Ti493     V494    10.0   .     S
V494     Er489    10.0   1_556     S
V494     Er495    10.0   .     S
V494     Er509    10.0   1_655     S
Er495     V520    10.0   1_545     S
Er495     Er503    10.0   1_655     S
H496     Ce458    10.0   1_565     S
H496     Li558    10.0   .     S
H496     Ti499    10.0   .     S
H497     Li587    10.0   .     S
H497     Ti499    10.0   .     S
H498     Li614    10.0   .     S
H498     Ti499    10.0   .     S
Ti499     V500    10.0   .     S
V500     Er476    10.0   1_565     S
V500     Er501    10.0   .     S
V500     Er502    10.0   .     S
Er501     V514    10.0   1_455     S
Er501     Er521    10.0   1_554     S
Er502     V526    10.0   1_554     S
Er502     Er475    10.0   1_565     S
Er503     V526    10.0   1_545     S
Er503     V508    10.0   .     S
Er503     Er495    10.0   1_455     S
H504     Ce443    10.0   1_556     S
H504     Li621    10.0   .     S
H504     Ti507    10.0   .     S
H505     Li608    10.0   .     S
H505     Ti507    10.0   .     S
H506     Li593    10.0   .     S
H506     Ti507    10.0   .     S
Ti507     V508    10.0   .     S
V508     Er475    10.0   1_556     S
V508     Er509    10.0   .     S
Er509     V494    10.0   1_455     S
Er509     Er477    10.0   1_556     S
H510     Ce457    10.0   1_565     S
H510     Li600    10.0   .     S
H510     Ti513    10.0   .     S
H511     Ce428    10.0   1_655     S
H511     Li615    10.0   .     S
H511     Ti513    10.0   .     S
H512     Li552    10.0   .     S
H512     Ti513    10.0   .     S
Ti513     V514    10.0   .     S
V514     Er483    10.0   1_565     S
V514     Er501    10.0   1_655     S
V514     Er515    10.0   .     S
Er515     V520    10.0   1_554     S
Er515     Er489    10.0   1_565     S
H516     Ce397    10.0   1_556     S
H516     Li551    10.0   .     S
H516     Ti519    10.0   .     S
H517     Ce412    10.0   1_565     S
H517     Li565    10.0   .     S
H517     Ti519    10.0   .     S
H518     Ce427    10.0   1_655     S
H518     Li579    10.0   .     S
H518     Ti519    10.0   .     S
Ti519     V520    10.0   .     S
V520     Er495    10.0   1_565     S
V520     Er515    10.0   1_556     S
V520     Er521    10.0   1_655     S
Er521     V520    10.0   1_455     S
Er521     V526    10.0   .     S
Er521     Er501    10.0   1_556     S
H522     Ce442    10.0   1_556     S
H522     Li586    10.0   .     S
H522     Ti525    10.0   .     S
H523     Ce413    10.0   1_565     S
H523     Li594    10.0   .     S
H523     Ti525    10.0   .     S
H524     Li580    10.0   .     S
H524     Ti525    10.0   .     S
Ti525     V526    10.0   .     S
V526     Er502    10.0   1_556     S
V526     Er503    10.0   1_565     S
Na527     B408    10.0   1_655     S
Na528     B393    10.0   1_565     S
Na529     B423    10.0   1_556     S
Na530     B453    10.0   1_655     S
Na531     B438    10.0   1_565     S
Na532     B468    10.0   1_556     S
Na539     B447    10.0   1_655     S
Na540     B432    10.0   1_565     S
Na541     B462    10.0   1_556     S
Na542     B402    10.0   1_655     S
Na543     B387    10.0   1_565     S
Na544     B417    10.0   1_556     S
Li551     C553    9.999   .     S
Li551     Li552    10.0   1_556     S
Li552     C555    9.999   .     S
Li552     Li551    10.0   1_554     S
C553     Ne554    9.999   1_556     S
C553     Mg556    10.0   .     S
Ne554     C553    9.999   1_554     S
Ne554     C555    9.999   .     S
C555     Mg557    10.0   .     S
Mg556     P723    10.0   .     S
Mg557     P729    10.0   .     S
Li558     C560    9.999   .     S
Li558     Li559    10.0   1_565     S
Li559     C562    9.999   .     S
Li559     Li558    10.0   1_545     S
C560     Ne561    9.999   1_565     S
C560     Mg563    10.0   .     S
Ne561     C560    9.999   1_545     S
Ne561     C562    9.999   .     S
C562     Mg564    10.0   .     S
Mg563     P731    10.0   .     S
Mg564     P737    10.0   .     S
Li565     C567    9.999   .     S
Li565     Li566    10.0   1_565     S
Li566     C569    9.999   .     S
Li566     Li565    10.0   1_545     S
C567     Ne568    9.999   1_565     S
C567     Mg570    10.0   .     S
Ne568     C567    9.999   1_545     S
Ne568     C569    9.999   .     S
C569     Mg571    10.0   .     S
Mg570     P719    10.0   .     S
Mg571     P725    10.0   .     S
Li572     C574    9.999   .     S
Li572     Li573    10.0   1_655     S
Li573     C576    9.999   .     S
Li573     Li572    10.0   1_455     S
C574     Ne575    9.999   1_655     S
C574     Mg577    10.0   .     S
Ne575     C574    9.999   1_455     S
Ne575     C576    9.999   .     S
C576     Mg578    10.0   .     S
Mg577     P733    10.0   .     S
Mg578     P739    10.0   .     S
Li579     C581    9.999   .     S
Li579     Li580    10.0   1_655     S
Li580     C583    9.999   .     S
Li580     Li579    10.0   1_455     S
C581     Ne582    9.999   1_655     S
C581     Mg584    10.0   .     S
Ne582     C581    9.999   1_455     S
Ne582     C583    9.999   .     S
C583     Mg585    10.0   .     S
Mg584     P721    10.0   .     S
Mg585     P727    10.0   .     S
Li586     C588    9.999   .     S
Li586     Li587    10.0   1_556     S
Li587     C590    9.999   .     S
Li587     Li586    10.0   1_554     S
C588     Ne589    9.999   1_556     S
C588     Mg591    10.0   .     S
Ne589     C588    9.999   1_554     S
Ne589     C590    9.999   .     S
C590     Mg592    10.0   .     S
Mg591     P747    10.0   .     S
Mg592     P753    10.0   .     S
Li593     C597    9.999   .     S
Li593     Li594    10.0   1_545     S
Li594     C595    9.999   .     S
Li594     Li593    10.0   1_565     S
C595     Ne596    9.999   1_565     S
C595     Mg598    10.0   .     S
Ne596     C595    9.999   1_545     S
Ne596     C597    9.999   .     S
C597     Mg599    10.0   .     S
Mg598     P707    10.0   .     S
Mg599     P713    10.0   .     S
Li600     C602    9.999   .     S
Li600     Li601    10.0   1_565     S
Li601     C604    9.999   .     S
Li601     Li600    10.0   1_545     S
C602     Ne603    9.999   1_565     S
C602     Mg605    10.0   .     S
Ne603     C602    9.999   1_545     S
Ne603     C604    9.999   .     S
C604     Mg606    10.0   .     S
Mg605     P743    10.0   .     S
Mg606     P749    10.0   .     S
Li607     C609    9.999   .     S
Li607     Li608    10.0   1_655     S
Li608     C611    9.999   .     S
Li608     Li607    10.0   1_455     S
C609     Ne610    9.999   1_655     S
C609     Mg612    10.0   .     S
Ne610     C609    9.999   1_455     S
Ne610     C611    9.999   .     S
C611     Mg613    10.0   .     S
Mg612     P745    10.0   .     S
Mg613     P751    10.0   .     S
Li614     C618    9.999   .     S
Li614     Li615    10.0   1_455     S
Li615     C616    9.999   .     S
Li615     Li614    10.0   1_655     S
C616     Ne617    9.999   1_655     S
C616     Mg619    10.0   .     S
Ne617     C616    9.999   1_455     S
Ne617     C618    9.999   .     S
C618     Mg620    10.0   .     S
Mg619     P709    10.0   .     S
Mg620     P715    10.0   .     S
Li621     C623    9.999   .     S
Li621     Li622    10.0   1_556     S
Li622     C625    9.999   .     S
Li622     Li621    10.0   1_554     S
C623     Ne624    9.999   1_556     S
C623     Mg626    10.0   .     S
Ne624     C623    9.999   1_554     S
Ne624     C625    9.999   .     S
C625     Mg627    10.0   .     S
Mg626     P735    10.0   .     S
Mg627     P741    10.0   .     S
Li628     C632    9.999   .     S
Li628     Li629    10.0   1_554     S
Li629     C630    9.999   .     S
Li629     Li628    10.0   1_556     S
C630     Ne631    9.999   1_556     S
C630     Mg633    10.0   .     S
Ne631     C630    9.999   1_554     S
Ne631     C632    9.999   .     S
C632     Mg634    10.0   .     S
Mg633     P711    10.0   .     S
Mg634     P717    10.0   .     S
Si635     F746    10.0   .     S
Si635     Ar636    10.0   .     S
Ar636     Cr107    10.0   1_655     S
Ar636     Na919    10.0   .     S
Si637     F728    10.0   .     S
Si637     Ar638    10.0   .     S
Ar638     Na913    10.0   .     S
Si639     F748    10.0   .     S
Si639     Ar640    10.0   .     S
Ar640     Cr99    10.0   1_556     S
Ar640     Na918    10.0   .     S
Si641     F730    10.0   .     S
Si641     Ar642    10.0   .     S
Ar642     Na912    10.0   .     S
Si643     F726    10.0   .     S
Si643     Ar644    10.0   .     S
Ar644     Na914    10.0   .     S
Si645     F744    10.0   .     S
Si645     Ar646    10.0   .     S
Ar646     Cr103    10.0   1_565     S
Ar646     Na920    10.0   .     S
Si647     F752    10.0   .     S
Si647     Ar648    10.0   .     S
Ar648     Na910    10.0   .     S
Si649     F722    10.0   .     S
Si649     Ar650    10.0   .     S
Ar650     Cr167    10.0   1_655     S
Ar650     Na916    10.0   .     S
Si651     F754    10.0   .     S
Si651     Ar652    10.0   .     S
Ar652     Na909    10.0   .     S
Si653     F724    10.0   .     S
Si653     Ar654    10.0   .     S
Ar654     Cr159    10.0   1_556     S
Ar654     Na915    10.0   .     S
Si655     F750    10.0   .     S
Si655     Ar656    10.0   .     S
Ar656     Na911    10.0   .     S
Si657     F720    10.0   .     S
Si657     Ar658    10.0   .     S
Ar658     Cr163    10.0   1_565     S
Ar658     Na917    10.0   .     S
Si659     F740    10.0   .     S
Si659     Ar660    10.0   .     S
Ar660     Na899    10.0   .     S
Si661     F742    10.0   .     S
Si661     Ar662    10.0   .     S
Ar662     Na902    10.0   .     S
Si663     F738    10.0   .     S
Si663     Ar664    10.0   .     S
Ar664     Na900    10.0   .     S
Si665     F734    10.0   .     S
Si665     Ar666    10.0   .     S
Ar666     Cr95    10.0   1_655     S
Ar666     Na904    10.0   .     S
Si667     F736    10.0   .     S
Si667     Ar668    10.0   .     S
Ar668     Cr87    10.0   1_556     S
Ar668     Na903    10.0   .     S
Si669     F732    10.0   .     S
Si669     Ar670    10.0   .     S
Ar670     Cr91    10.0   1_565     S
Ar670     Na905    10.0   .     S
Si671     F710    10.0   .     S
Si671     Ar672    10.0   .     S
Ar672     Cr179    10.0   1_655     S
Ar672     Na907    10.0   .     S
Si673     F712    10.0   .     S
Si673     Ar674    10.0   .     S
Ar674     Cr171    10.0   1_556     S
Ar674     Na906    10.0   .     S
Si675     F708    10.0   .     S
Si675     Ar676    10.0   .     S
Ar676     Cr175    10.0   1_565     S
Ar676     Na908    10.0   .     S
Si677     F716    10.0   .     S
Si677     Ar678    10.0   .     S
Ar678     Na897    10.0   .     S
Si679     F718    10.0   .     S
Si679     Ar680    10.0   .     S
Ar680     Na901    10.0   .     S
Si681     F714    10.0   .     S
Si681     Ar682    10.0   .     S
Ar682     Na898    10.0   .     S
Ca683     Na900    9.999   .     S
Ca683     Ca686    10.0   .     S
Ca684     Na899    9.999   .     S
Ca684     Ca687    10.0   .     S
Ca685     Na902    9.999   .     S
Ca685     Ca688    10.0   .     S
Ca686     Na898    9.999   .     S
Ca687     Na897    9.999   .     S
Ca688     Na901    9.999   .     S
Ca689     Na914    9.999   .     S
Ca689     Ca696    10.0   .     S
Ca690     Na908    9.999   .     S
Ca690     Mn33    10.0   1_565     S
Ca690     Ca695    10.0   .     S
Ca691     Na913    9.999   .     S
Ca691     Ca698    10.0   .     S
Ca692     Na907    9.999   .     S
Ca692     Mn35    10.0   1_655     S
Ca692     Ca697    10.0   .     S
Ca693     Na906    9.999   .     S
Ca693     Mn31    10.0   1_556     S
Ca693     Ca700    10.0   .     S
Ca694     Na912    9.999   .     S
Ca694     Ca699    10.0   .     S
Ca695     Na905    9.999   .     S
Ca695     Mn27    10.0   1_565     S
Ca696     Na911    9.999   .     S
Ca697     Na904    9.999   .     S
Ca697     Mn29    10.0   1_655     S
Ca698     Na910    9.999   .     S
Ca699     Na909    9.999   .     S
Ca700     Na903    9.999   .     S
Ca700     Mn25    10.0   1_556     S
Ca701     Na920    9.999   .     S
Ca701     Mn49    10.0   1_565     S
Ca701     Ca704    10.0   .     S
Ca702     Na919    9.999   .     S
Ca702     Mn51    10.0   1_655     S
Ca702     Ca705    10.0   .     S
Ca703     Na918    9.999   .     S
Ca703     Mn59    10.0   1_556     S
Ca703     Ca706    10.0   .     S
Ca704     Na917    9.999   .     S
Ca704     Mn55    10.0   1_565     S
Ca705     Na916    9.999   .     S
Ca705     Mn57    10.0   1_655     S
Ca706     Na915    9.999   .     S
Ca706     Mn53    10.0   1_556     S
P707     F708    9.999   .     S
F708     N770    10.0   .     S
P709     F710    9.999   .     S
F710     N755    10.0   .     S
P711     F712    9.999   .     S
F712     N785    10.0   .     S
P713     F714    9.999   .     S
F714     N830    10.0   .     S
P715     F716    9.999   .     S
F716     N800    10.0   .     S
P717     F718    9.999   .     S
F718     N815    10.0   .     S
P719     F720    9.999   .     S
F720     N776    10.0   .     S
P721     F722    9.999   .     S
F722     N761    10.0   .     S
P723     F724    9.999   .     S
F724     N791    10.0   .     S
P725     F726    9.999   .     S
F726     N836    10.0   .     S
P727     F728    9.999   .     S
F728     N806    10.0   .     S
P729     F730    9.999   .     S
F730     N821    10.0   .     S
P731     F732    9.999   .     S
F732     N774    10.0   .     S
P733     F734    9.999   .     S
F734     N759    10.0   .     S
P735     F736    9.999   .     S
F736     N789    10.0   .     S
P737     F738    9.999   .     S
F738     N834    10.0   .     S
P739     F740    9.999   .     S
F740     N804    10.0   .     S
P741     F742    9.999   .     S
F742     N819    10.0   .     S
P743     F744    9.999   .     S
F744     N780    10.0   .     S
P745     F746    9.999   .     S
F746     N765    10.0   .     S
P747     F748    9.999   .     S
F748     N795    10.0   .     S
P749     F750    9.999   .     S
F750     N840    10.0   .     S
P751     F752    9.999   .     S
F752     N810    10.0   .     S
P753     F754    9.999   .     S
F754     N825    10.0   .     S
N755     Be756    10.0   .     S
N755     Na907    10.001   .     S
Be756     H882    10.001   .     S
Be756     He758    10.0   .     S
B757     He758    10.0   .     S
B757     Na904    10.0   .     S
B757     Na907    10.0   .     S
He758     Be760    10.0   .     S
He758     S769    10.0   .     S
N759     Be760    10.0   .     S
N759     Na904    10.001   .     S
Be760     H855    10.001   .     S
N761     Be762    10.0   .     S
N761     Na916    10.001   .     S
Be762     H885    10.001   .     S
Be762     He764    10.0   .     S
B763     He764    10.0   .     S
B763     Na916    10.0   .     S
B763     Na919    10.0   .     S
He764     Be766    10.0   .     S
He764     S769    10.0   .     S
N765     Be766    10.0   .     S
N765     Na919    10.001   .     S
Be766     H861    10.001   .     S
Ce767     H882    10.0   .     S
Ce767     H885    10.0   .     S
Ce767     S769    10.0   .     S
Ce767     Er879    10.0   .     S
Ce768     H855    10.0   .     S
Ce768     H861    10.0   .     S
Ce768     S769    10.0   .     S
Ce768     Er858    10.0   .     S
N770     Be771    10.0   .     S
N770     Na908    10.001   .     S
Be771     H893    10.001   .     S
Be771     He773    10.0   .     S
B772     He773    10.0   .     S
B772     Na905    10.0   .     S
B772     Na908    10.0   .     S
He773     Be775    10.0   .     S
He773     S784    10.0   .     S
N774     Be775    10.0   .     S
N774     Na905    10.001   .     S
Be775     H875    10.001   .     S
N776     Be777    10.0   .     S
N776     Na917    10.001   .     S
Be777     H887    10.001   .     S
Be777     He779    10.0   .     S
B778     He779    10.0   .     S
B778     Na917    10.0   .     S
B778     Na920    10.0   .     S
He779     Be781    10.0   .     S
He779     S784    10.0   .     S
N780     Be781    10.0   .     S
N780     Na920    10.001   .     S
Be781     H881    10.001   .     S
Ce782     H893    10.0   .     S
Ce782     H887    10.0   .     S
Ce782     S784    10.0   .     S
Ce782     Er890    10.0   .     S
Ce783     H875    10.0   .     S
Ce783     H881    10.0   .     S
Ce783     S784    10.0   .     S
Ce783     Er878    10.0   .     S
N785     Be786    10.0   .     S
N785     Na906    10.001   .     S
Be786     H862    10.001   .     S
Be786     He788    10.0   .     S
B787     He788    10.0   .     S
B787     Na903    10.0   .     S
B787     Na906    10.0   .     S
He788     Be790    10.0   .     S
He788     S799    10.0   .     S
N789     Be790    10.0   .     S
N789     Na903    10.001   .     S
Be790     H868    10.001   .     S
N791     Be792    10.0   .     S
N791     Na915    10.001   .     S
Be792     H886    10.001   .     S
Be792     He794    10.0   .     S
B793     He794    10.0   .     S
B793     Na915    10.0   .     S
B793     Na918    10.0   .     S
He794     Be796    10.0   .     S
He794     S799    10.0   .     S
N795     Be796    10.0   .     S
N795     Na918    10.001   .     S
Be796     H892    10.001   .     S
Ce797     H868    10.0   .     S
Ce797     H892    10.0   .     S
Ce797     S799    10.0   .     S
Ce797     Er871    10.0   .     S
Ce798     H862    10.0   .     S
Ce798     H886    10.0   .     S
Ce798     S799    10.0   .     S
Ce798     Er859    10.0   .     S
N800     Be801    10.0   .     S
N800     Na897    10.001   .     S
Be801     H874    10.001   .     S
Be801     He803    10.0   .     S
B802     He803    10.0   .     S
B802     Na897    10.0   .     S
B802     Na899    10.0   .     S
He803     Be805    10.0   .     S
He803     S814    10.0   .     S
N804     Be805    10.0   .     S
N804     Na899    10.001   .     S
Be805     H845    10.001   .     S
N806     Be807    10.0   .     S
N806     Na913    10.001   .     S
Be807     H891    10.001   .     S
Be807     He809    10.0   .     S
B808     He809    10.0   .     S
B808     Na910    10.0   .     S
B808     Na913    10.0   .     S
He809     Be811    10.0   .     S
He809     S814    10.0   .     S
N810     Be811    10.0   .     S
N810     Na910    10.001   .     S
Be811     H866    10.001   .     S
Ce812     H845    10.0   .     S
Ce812     H866    10.0   .     S
Ce812     S814    10.0   .     S
Ce812     Er872    10.0   .     S
Ce813     H874    10.0   .     S
Ce813     H891    10.0   .     S
Ce813     S814    10.0   .     S
Ce813     Er896    10.0   .     S
N815     Be816    10.0   .     S
N815     Na901    10.001   .     S
Be816     H854    10.001   .     S
Be816     He818    10.0   .     S
B817     He818    10.0   .     S
B817     Na901    10.0   .     S
B817     Na902    10.0   .     S
He818     Be820    10.0   .     S
He818     S829    10.0   .     S
N819     Be820    10.0   .     S
N819     Na902    10.001   .     S
Be820     H846    10.001   .     S
N821     Be822    10.0   .     S
N821     Na912    10.001   .     S
Be822     H880    10.001   .     S
Be822     He824    10.0   .     S
B823     He824    10.0   .     S
B823     Na909    10.0   .     S
B823     Na912    10.0   .     S
He824     Be826    10.0   .     S
He824     S829    10.0   .     S
N825     Be826    10.0   .     S
N825     Na909    10.001   .     S
Be826     H873    10.001   .     S
Ce827     H846    10.0   .     S
Ce827     H873    10.0   .     S
Ce827     S829    10.0   .     S
Ce827     Er851    10.0   .     S
Ce828     H854    10.0   .     S
Ce828     H880    10.0   .     S
Ce828     S829    10.0   .     S
Ce828     Er850    10.0   .     S
N830     Be831    10.0   .     S
N830     Na898    10.001   .     S
Be831     H867    10.001   .     S
Be831     He833    10.0   .     S
B832     He833    10.0   .     S
B832     Na898    10.0   .     S
B832     Na900    10.0   .     S
He833     Be835    10.0   .     S
He833     S844    10.0   .     S
N834     Be835    10.0   .     S
N834     Na900    10.001   .     S
Be835     H847    10.001   .     S
N836     Be837    10.0   .     S
N836     Na914    10.001   .     S
Be837     H860    10.001   .     S
Be837     He839    10.0   .     S
B838     He839    10.0   .     S
B838     Na911    10.0   .     S
B838     Na914    10.0   .     S
He839     Be841    10.0   .     S
He839     S844    10.0   .     S
N840     Be841    10.0   .     S
N840     Na911    10.001   .     S
Be841     H853    10.001   .     S
Ce842     H847    10.0   .     S
Ce842     H853    10.0   .     S
Ce842     S844    10.0   .     S
Ce842     Er852    10.0   .     S
Ce843     H867    10.0   .     S
Ce843     H860    10.0   .     S
Ce843     S844    10.0   .     S
Ce843     Er865    10.0   .     S
H845     Ti848    10.0   .     S
H846     Ti848    10.0   .     S
H847     Ti848    10.0   .     S
Ti848     V849    10.0   .     S
V849     Er851    10.0   .     S
V849     Er872    10.0   .     S
V849     Er852    10.0   .     S
Er850     V884    10.0   .     S
Er850     V857    10.0   .     S
Er850     Er851    10.0   .     S
Er851     V877    10.0   .     S
Er852     V857    10.0   .     S
Er852     Er865    10.0   .     S
H853     Ti856    10.0   .     S
H854     Ti856    10.0   .     S
H855     Ti856    10.0   .     S
Ti856     V857    10.0   .     S
V857     Er858    10.0   .     S
Er858     V864    10.0   .     S
Er858     Er879    10.0   .     S
Er859     V889    10.0   .     S
Er859     V864    10.0   .     S
Er859     Er871    10.0   .     S
H860     Ti863    10.0   .     S
H861     Ti863    10.0   .     S
H862     Ti863    10.0   .     S
Ti863     V864    10.0   .     S
V864     Er865    10.0   .     S
Er865     V870    10.0   .     S
H866     Ti869    10.0   .     S
H867     Ti869    10.0   .     S
H868     Ti869    10.0   .     S
Ti869     V870    10.0   .     S
V870     Er871    10.0   .     S
V870     Er872    10.0   .     S
Er871     V895    10.0   .     S
Er872     Er896    10.0   .     S
H873     Ti876    10.0   .     S
H874     Ti876    10.0   .     S
H875     Ti876    10.0   .     S
Ti876     V877    10.0   .     S
V877     Er896    10.0   .     S
V877     Er878    10.0   .     S
Er878     V884    10.0   .     S
Er878     Er890    10.0   .     S
Er879     V889    10.0   .     S
Er879     V884    10.0   .     S
H880     Ti883    10.0   .     S
H881     Ti883    10.0   .     S
H882     Ti883    10.0   .     S
Ti883     V884    10.0   .     S
H885     Ti888    10.0   .     S
H886     Ti888    10.0   .     S
H887     Ti888    10.0   .     S
Ti888     V889    10.0   .     S
V889     Er890    10.0   .     S
Er890     V895    10.0   .     S
H891     Ti894    10.0   .     S
H892     Ti894    10.0   .     S
H893     Ti894    10.0   .     S
Ti894     V895    10.0   .     S
V895     Er896    10.0   .     S
