data_tfg
_audit_creation_date              2020-02-04
_audit_creation_method            'Pymatgen'
_symmetry_space_group_name_H-M    'P1'
_symmetry_Int_Tables_number       1
loop_
_symmetry_equiv_pos_as_xyz
  x,y,z
_cell_length_a                    34.4949
_cell_length_b                    34.4949
_cell_length_c                    34.4949
_cell_angle_alpha                 90.0
_cell_angle_beta                 90.0
_cell_angle_gamma                 90.0
loop_
_atom_site_label
_atom_site_type_symbol
_atom_site_fract_x
_atom_site_fract_y
_atom_site_fract_z
Er1     Er     0.145   0.5   0.145
Er2     Er     0.855   0.5   0.145
Er3     Er     0.855   0.5   0.855
Er4     Er     0.145   0.5   0.855
V5     V     0.2633   0.7367   0.2633
Er6     Er     0.5   0.855   0.145
Er7     Er     0.5   0.145   0.145
Er8     Er     0.5   0.855   0.855
Er9     Er     0.5   0.145   0.855
V10     V     0.7367   0.2633   0.2633
Er11     Er     0.145   0.855   0.5
Er12     Er     0.855   0.855   0.5
Er13     Er     0.145   0.145   0.5
Er14     Er     0.855   0.145   0.5
V15     V     0.2633   0.2633   0.7367
V16     V     0.2633   0.7367   0.7367
V17     V     0.7367   0.2633   0.7367
V18     V     0.7367   0.7367   0.2633
V19     V     0.7367   0.7367   0.7367
V20     V     0.2633   0.2633   0.2633
loop_
_geom_bond_atom_site_label_1
_geom_bond_atom_site_label_2
_geom_bond_distance
_geom_bond_site_symmetry_2
_ccdc_geom_bond_type
Er1     V20    10.0   .     S
Er1     V5    10.0   .     S
Er1     Er4    10.0   1_554     S
Er1     Er2    10.0   1_455     S
Er2     Er1    10.0   1_655     S
Er2     V10    10.0   .     S
Er2     V18    10.0   .     S
Er2     Er3    10.0   1_554     S
Er3     Er2    10.0   1_556     S
Er3     V17    10.0   .     S
Er3     V19    10.0   .     S
Er3     Er4    10.0   1_655     S
Er4     Er1    10.0   1_556     S
Er4     V15    10.0   .     S
Er4     V16    10.0   .     S
Er4     Er3    10.0   1_455     S
V5     Er6    10.0   .     S
V5     Er11    10.0   .     S
Er6     V18    10.0   .     S
Er6     Er8    10.0   1_554     S
Er6     Er7    10.0   1_565     S
Er7     V20    10.0   .     S
Er7     V10    10.0   .     S
Er7     Er9    10.0   1_554     S
Er7     Er6    10.0   1_545     S
Er8     Er6    10.0   1_556     S
Er8     V16    10.0   .     S
Er8     V19    10.0   .     S
Er8     Er9    10.0   1_565     S
Er9     Er7    10.0   1_556     S
Er9     V15    10.0   .     S
Er9     V17    10.0   .     S
Er9     Er8    10.0   1_545     S
V10     Er14    10.0   .     S
Er11     V16    10.0   .     S
Er11     Er12    10.0   1_455     S
Er11     Er13    10.0   1_565     S
Er12     Er11    10.0   1_655     S
Er12     V18    10.0   .     S
Er12     V19    10.0   .     S
Er12     Er14    10.0   1_565     S
Er13     V20    10.0   .     S
Er13     V15    10.0   .     S
Er13     Er11    10.0   1_545     S
Er13     Er14    10.0   1_455     S
Er14     Er13    10.0   1_655     S
Er14     V17    10.0   .     S
Er14     Er12    10.0   1_545     S
