data_tto
_audit_creation_date              2020-02-04
_audit_creation_method            'Pymatgen'
_symmetry_space_group_name_H-M    'P1'
_symmetry_Int_Tables_number       1
loop_
_symmetry_equiv_pos_as_xyz
  x,y,z
_cell_length_a                    118.9494
_cell_length_b                    118.9494
_cell_length_c                    49.0561
_cell_angle_alpha                 90.0
_cell_angle_beta                 90.0
_cell_angle_gamma                 120.0
loop_
_atom_site_label
_atom_site_type_symbol
_atom_site_fract_x
_atom_site_fract_y
_atom_site_fract_z
Ti1     Ti     0.7532   0.1244   0.4026
V2     V     0.7694   0.1103   0.5959
Ti3     Ti     0.791   0.0866   0.4307
V4     V     0.777   0.1028   0.2375
Ti5     Ti     0.5801   0.0378   0.764
V6     V     0.5639   0.0076   0.5708
Ti7     Ti     0.7045   0.9134   0.0693
V8     V     0.6743   0.8972   0.2625
Ti9     Ti     0.6289   0.8756   0.0974
V10     V     0.6591   0.8897   0.9041
S11     S     0.6667   0.0559   0.3332
H12     H     0.6665   0.9719   0.3335
S13     S     0.6108   0.9441   0.1668
H14     H     0.6946   0.0281   0.1665
Ce15     Ce     0.6104   0.0279   0.1668
Ce16     Ce     0.5826   0.9721   0.3332
S17     S     0.6667   0.0559   0.8335
H18     H     0.6668   0.9721   0.8332
S19     S     0.7225   0.0   0.9999
H20     H     0.6387   0.0001   0.0001
Ce21     Ce     0.7229   0.0841   0.9999
Ce22     Ce     0.7508   0.0562   0.8335
S23     S     0.6108   0.9441   0.6665
H24     H     0.6947   0.0279   0.6668
S25     S     0.7225   0.0   0.5001
H26     H     0.6386   0.9999   0.4999
Ce27     Ce     0.6388   0.9159   0.5001
Ce28     Ce     0.6946   0.9438   0.6665
Ti29     Ti     0.5423   0.9622   0.736
V30     V     0.5563   0.9924   0.9292
Er31     Er     0.5   0.0245   0.6685
Er32     Er     0.6421   0.8088   0.0018
Er33     Er     0.8333   0.1912   0.4982
Er34     Er     0.8578   0.1667   0.3351
Er35     Er     0.6912   0.8333   0.1649
Er36     Er     0.4755   0.9755   0.8315
Ti37     Ti     0.6289   0.7532   0.5974
V38     V     0.6591   0.7694   0.4041
Ti39     Ti     0.7532   0.6289   0.9026
V40     V     0.7694   0.6591   0.0959
Ti41     Ti     0.5423   0.5801   0.236
V42     V     0.5563   0.5639   0.4292
Ti43     Ti     0.5801   0.5423   0.264
V44     V     0.5639   0.5563   0.0708
Ti45     Ti     0.791   0.7045   0.9307
V46     V     0.777   0.6743   0.7375
S47     S     0.6108   0.6667   0.6668
H48     H     0.6946   0.6665   0.6665
S49     S     0.6667   0.6108   0.8332
H50     H     0.6665   0.6946   0.8335
Ce51     Ce     0.5826   0.6104   0.8332
Ce52     Ce     0.6104   0.5826   0.6668
S53     S     0.6667   0.6108   0.3335
H54     H     0.6668   0.6947   0.3332
S55     S     0.7225   0.7225   0.4999
H56     H     0.6387   0.6386   0.5001
Ce57     Ce     0.7229   0.6388   0.4999
Ce58     Ce     0.7508   0.6946   0.3335
S59     S     0.6108   0.6667   0.1665
H60     H     0.6947   0.6668   0.1668
S61     S     0.7225   0.7225   0.0001
H62     H     0.6386   0.6387   0.9999
Ce63     Ce     0.6388   0.7229   0.0001
Ce64     Ce     0.6946   0.7508   0.1665
Ti65     Ti     0.7045   0.791   0.5693
V66     V     0.6743   0.777   0.7625
Er67     Er     0.8578   0.6912   0.8351
Er68     Er     0.6912   0.8578   0.6649
Er69     Er     0.5   0.4755   0.1685
Er70     Er     0.4755   0.5   0.3315
Er71     Er     0.8333   0.6421   0.9982
Er72     Er     0.6421   0.8333   0.5018
Ti73     Ti     0.2468   0.3711   0.0974
V74     V     0.2306   0.3409   0.9041
Ti75     Ti     0.4577   0.4199   0.764
V76     V     0.4437   0.4361   0.5708
Ti77     Ti     0.2955   0.209   0.4307
V78     V     0.3257   0.223   0.2375
Ti79     Ti     0.209   0.2955   0.0693
V80     V     0.223   0.3257   0.2625
Ti81     Ti     0.3711   0.2468   0.4026
V82     V     0.3409   0.2306   0.5959
S83     S     0.2775   0.2775   0.5001
H84     H     0.3613   0.3614   0.4999
S85     S     0.3333   0.3892   0.6665
H86     H     0.3332   0.3053   0.6668
Ce87     Ce     0.2492   0.3054   0.6665
Ce88     Ce     0.2771   0.3612   0.5001
S89     S     0.3892   0.3333   0.8335
H90     H     0.3053   0.3332   0.8332
S91     S     0.2775   0.2775   0.9999
H92     H     0.3614   0.3613   0.0001
Ce93     Ce     0.3054   0.2492   0.8335
Ce94     Ce     0.3612   0.2771   0.9999
S95     S     0.3333   0.3892   0.1668
H96     H     0.3335   0.3054   0.1665
S97     S     0.3892   0.3333   0.3332
H98     H     0.3054   0.3335   0.3335
Ce99     Ce     0.4174   0.3896   0.1668
Ce100     Ce     0.3896   0.4174   0.3332
Ti101     Ti     0.4199   0.4577   0.736
V102     V     0.4361   0.4437   0.9292
Er103     Er     0.1422   0.3088   0.1649
Er104     Er     0.3088   0.1422   0.3351
Er105     Er     0.5245   0.5   0.6685
Er106     Er     0.5   0.5245   0.8315
Er107     Er     0.1667   0.3579   0.0018
Er108     Er     0.3579   0.1667   0.4982
Ti109     Ti     0.4577   0.0378   0.264
V110     V     0.4437   0.0076   0.0708
Ti111     Ti     0.4199   0.9622   0.236
V112     V     0.4361   0.9924   0.4292
Ti113     Ti     0.3711   0.1244   0.9026
V114     V     0.3409   0.1103   0.0959
Ti115     Ti     0.2955   0.0866   0.9307
V116     V     0.3257   0.1028   0.7375
Ti117     Ti     0.2468   0.8756   0.5974
V118     V     0.2306   0.8897   0.4041
S119     S     0.2775   0.0   0.0001
H120     H     0.3613   0.9999   0.9999
S121     S     0.3333   0.9441   0.1665
H122     H     0.3332   0.0279   0.1668
Ce123     Ce     0.2771   0.9159   0.0001
Ce124     Ce     0.2492   0.9438   0.1665
S125     S     0.3892   0.0559   0.3335
H126     H     0.3053   0.9721   0.3332
S127     S     0.2775   0.0   0.4999
H128     H     0.3614   0.0001   0.5001
Ce129     Ce     0.3612   0.0841   0.4999
Ce130     Ce     0.3054   0.0562   0.3335
S131     S     0.3333   0.9441   0.6668
H132     H     0.3335   0.0281   0.6665
S133     S     0.3892   0.0559   0.8332
H134     H     0.3054   0.9719   0.8335
Ce135     Ce     0.4174   0.0279   0.6668
Ce136     Ce     0.3896   0.9721   0.8332
Ti137     Ti     0.209   0.9134   0.5693
V138     V     0.223   0.8972   0.7625
Er139     Er     0.5   0.9755   0.3315
Er140     Er     0.3579   0.1912   0.9982
Er141     Er     0.1422   0.8333   0.6649
Er142     Er     0.1667   0.8088   0.5018
Er143     Er     0.3088   0.1667   0.8351
Er144     Er     0.5245   0.0245   0.1685
Ti145     Ti     0.1244   0.7532   0.0974
V146     V     0.1103   0.7694   0.9041
Ti147     Ti     0.9134   0.7045   0.4307
V148     V     0.8972   0.6743   0.2375
Ti149     Ti     0.8756   0.6289   0.4026
V150     V     0.8897   0.6591   0.5959
Ti151     Ti     0.9622   0.5423   0.764
V152     V     0.9924   0.5563   0.5708
Ti153     Ti     0.0378   0.5801   0.736
V154     V     0.0076   0.5639   0.9292
S155     S     0.0   0.7225   0.5001
H156     H     0.0001   0.6387   0.4999
S157     S     0.0559   0.6667   0.6665
H158     H     0.9721   0.6668   0.6668
Ce159     Ce     0.0562   0.7508   0.6665
Ce160     Ce     0.0841   0.7229   0.5001
S161     S     0.9441   0.6108   0.3332
H162     H     0.0281   0.6946   0.3335
S163     S     0.0559   0.6667   0.1668
H164     H     0.9719   0.6665   0.1665
Ce165     Ce     0.0279   0.6104   0.3332
Ce166     Ce     0.9721   0.5826   0.1668
S167     S     0.9441   0.6108   0.8335
H168     H     0.0279   0.6947   0.8332
S169     S     0.0   0.7225   0.9999
H170     H     0.9999   0.6386   0.0001
Ce171     Ce     0.9159   0.6388   0.9999
Ce172     Ce     0.9438   0.6946   0.8335
Ti173     Ti     0.0866   0.791   0.0693
V174     V     0.1028   0.777   0.2625
Er175     Er     0.0245   0.5   0.8315
Er176     Er     0.8088   0.6421   0.4982
Er177     Er     0.1912   0.8333   0.0018
Er178     Er     0.1667   0.8578   0.1649
Er179     Er     0.8333   0.6912   0.3351
Er180     Er     0.9755   0.4755   0.6685
Ti181     Ti     0.0866   0.2955   0.5693
V182     V     0.1028   0.3257   0.7625
Ti183     Ti     0.0378   0.4577   0.236
V184     V     0.0076   0.4437   0.4292
Ti185     Ti     0.8756   0.2468   0.9026
V186     V     0.8897   0.2306   0.0959
Ti187     Ti     0.9134   0.209   0.9307
V188     V     0.8972   0.223   0.7375
Ti189     Ti     0.9622   0.4199   0.264
V190     V     0.9924   0.4361   0.0708
S191     S     0.0559   0.3892   0.1665
H192     H     0.9721   0.3053   0.1668
S193     S     0.0   0.2775   0.0001
H194     H     0.0001   0.3614   0.9999
Ce195     Ce     0.0562   0.3054   0.1665
Ce196     Ce     0.0841   0.3612   0.0001
S197     S     0.9441   0.3333   0.3335
H198     H     0.0279   0.3332   0.3332
S199     S     0.0   0.2775   0.4999
H200     H     0.9999   0.3613   0.5001
Ce201     Ce     0.9159   0.2771   0.4999
Ce202     Ce     0.9438   0.2492   0.3335
S203     S     0.9441   0.3333   0.8332
H204     H     0.0281   0.3335   0.8335
S205     S     0.0559   0.3892   0.6668
H206     H     0.9719   0.3054   0.6665
Ce207     Ce     0.0279   0.4174   0.8332
Ce208     Ce     0.9721   0.3896   0.6668
Ti209     Ti     0.1244   0.3711   0.5974
V210     V     0.1103   0.3409   0.4041
Er211     Er     0.9755   0.5   0.1685
Er212     Er     0.1912   0.3579   0.5018
Er213     Er     0.8088   0.1667   0.9982
Er214     Er     0.8333   0.1422   0.8351
Er215     Er     0.1667   0.3088   0.6649
Er216     Er     0.0245   0.5245   0.3315
loop_
_geom_bond_atom_site_label_1
_geom_bond_atom_site_label_2
_geom_bond_distance
_geom_bond_site_symmetry_2
_ccdc_geom_bond_type
Ti1     V2    9.979   .     S
Ti1     Er33    10.01   .     S
Ti1     S11    10.006   .     S
V2     H24    10.001   .     S
V2     Er33    10.006   .     S
Ti3     V4    9.979   .     S
Ti3     Er34    10.01   .     S
Ti3     S25    10.006   .     S
V4     H14    10.001   .     S
V4     Er34    10.006   .     S
Ti5     V6    9.979   .     S
Ti5     Er31    10.01   .     S
Ti5     S17    10.006   .     S
V6     H26    10.001   1_545     S
V6     Er31    10.006   .     S
Ti7     V8    9.979   .     S
Ti7     Er35    10.01   .     S
Ti7     S19    10.006   1_564     S
V8     H12    10.001   .     S
V8     Er35    10.006   .     S
Ti9     V10    9.979   1_554     S
Ti9     Er32    10.01   .     S
Ti9     S13    10.006   .     S
V10     Ti9    9.979   1_556     S
V10     H18    10.001   .     S
V10     Er32    10.006   1_556     S
S11     H14    9.99   .     S
S11     H12    9.975   1_545     S
S11     Ce16    9.983   1_545     S
S11     H26    10.005   1_545     S
S11     Ce15    10.009   .     S
H12     S13    9.99   .     S
H12     H26    9.988   .     S
H12     S11    9.975   1_565     S
H12     Ce16    10.001   .     S
H12     H14    10.026   1_565     S
H12     S25    10.005   1_565     S
H12     Ce27    10.009   .     S
S13     H14    9.975   1_565     S
S13     Ce15    9.983   1_565     S
S13     Ce16    10.009   .     S
S13     H20    10.005   1_565     S
H14     S13    9.975   1_545     S
H14     Ce15    10.001   .     S
H14     H20    9.988   .     S
H14     H12    10.026   1_545     S
H14     S19    10.005   1_554     S
H14     Ce21    10.009   1_554     S
Ce15     Ce16    9.981   1_545     S
Ce15     S13    9.983   1_545     S
Ce15     H20    10.009   .     S
Ce15     Er144    10.027   .     S
Ce16     S11    9.983   1_565     S
Ce16     Ce15    9.981   1_565     S
Ce16     H26    10.009   .     S
Ce16     Er139    10.027   .     S
S17     H20    9.99   1_556     S
S17     H18    9.975   1_545     S
S17     Ce22    9.983   .     S
S17     Ce21    10.009   .     S
S17     H24    10.005   .     S
H18     S19    9.99   1_565     S
H18     S17    9.975   1_565     S
H18     Ce22    10.001   1_565     S
H18     H24    9.988   1_565     S
H18     H20    10.026   1_566     S
H18     S23    10.005   .     S
H18     Ce28    10.009   .     S
S19     H18    9.99   1_545     S
S19     H20    9.975   1_556     S
S19     Ce21    9.983   .     S
S19     H14    10.005   1_556     S
S19     Ce22    10.009   .     S
S19     Ti7    10.006   1_546     S
H20     S17    9.99   1_554     S
H20     S19    9.975   1_554     S
H20     Ce21    10.001   1_554     S
H20     V30    10.001   1_544     S
H20     H18    10.026   1_544     S
H20     S13    10.005   1_545     S
Ce21     Ce22    9.981   .     S
Ce21     H20    10.001   1_556     S
Ce21     H14    10.009   1_556     S
Ce21     Er213    10.027   .     S
Ce22     H18    10.001   1_545     S
Ce22     H24    10.009   .     S
Ce22     Er214    10.027   .     S
S23     H26    9.99   .     S
S23     H24    9.975   1_565     S
S23     Ce28    9.983   .     S
S23     Ce27    10.009   .     S
S23     Ti29    10.006   .     S
H24     S25    9.99   .     S
H24     H18    9.988   1_545     S
H24     S23    9.975   1_545     S
H24     Ce28    10.001   1_545     S
H24     H26    10.026   1_545     S
S25     H26    9.975   1_545     S
S25     Ce27    9.983   1_545     S
S25     H12    10.005   1_545     S
S25     Ce28    10.009   1_545     S
H26     V6    10.001   1_565     S
H26     S25    9.975   1_565     S
H26     Ce27    10.001   .     S
H26     H24    10.026   1_565     S
H26     S11    10.005   1_565     S
Ce27     Ce28    9.981   .     S
Ce27     S25    9.983   1_565     S
Ce27     Er72    10.027   .     S
Ce28     H24    10.001   1_565     S
Ce28     S25    10.009   1_565     S
Ce28     Er68    10.027   .     S
Ti29     V30    9.979   .     S
Ti29     Er36    10.01   .     S
V30     H20    10.001   1_566     S
V30     Er36    10.006   .     S
Er31     Ce135    10.027   .     S
Er32     V10    10.006   1_554     S
Er32     Ce63    10.027   .     S
Er33     Ce201    10.027   .     S
Er34     Ce202    10.027   .     S
Er35     Ce64    10.027   .     S
Er36     Ce136    10.027   .     S
Ti37     V38    9.979   .     S
Ti37     Er72    10.01   .     S
Ti37     S47    10.006   .     S
V38     H54    10.001   .     S
V38     Er72    10.006   .     S
Ti39     V40    9.979   1_556     S
Ti39     Er71    10.01   .     S
Ti39     S49    10.006   .     S
V40     Ti39    9.979   1_554     S
V40     H60    10.001   .     S
V40     Er71    10.006   1_554     S
Ti41     V42    9.979   .     S
Ti41     Er70    10.01   .     S
Ti41     S59    10.006   .     S
V42     H56    10.001   .     S
V42     Er70    10.006   .     S
Ti43     V44    9.979   .     S
Ti43     Er69    10.01   .     S
Ti43     S53    10.006   .     S
V44     H62    10.001   1_554     S
V44     Er69    10.006   .     S
Ti45     V46    9.979   .     S
Ti45     Er67    10.01   .     S
Ti45     S61    10.006   1_556     S
V46     H48    10.001   .     S
V46     Er67    10.006   .     S
S47     H50    9.99   .     S
S47     H48    9.975   .     S
S47     Ce52    9.983   .     S
S47     Ce51    10.009   .     S
S47     H56    10.005   .     S
H48     S49    9.99   .     S
H48     Ce52    10.001   .     S
H48     H56    9.988   .     S
H48     H50    10.026   .     S
H48     S55    10.005   .     S
H48     Ce57    10.009   .     S
S49     H50    9.975   .     S
S49     Ce51    9.983   .     S
S49     Ce52    10.009   .     S
S49     H62    10.005   .     S
H50     Ce51    10.001   .     S
H50     H62    9.988   .     S
H50     V66    10.001   .     S
H50     S61    10.005   1_556     S
H50     Ce63    10.009   1_556     S
Ce51     Ce52    9.981   .     S
Ce51     H62    10.009   .     S
Ce51     Er106    10.027   .     S
Ce52     H56    10.009   .     S
Ce52     Er105    10.027   .     S
S53     H56    9.99   .     S
S53     H54    9.975   .     S
S53     Ce58    9.983   .     S
S53     Ce57    10.009   .     S
S53     H60    10.005   .     S
H54     S55    9.99   .     S
H54     Ce58    10.001   .     S
H54     H60    9.988   .     S
H54     H56    10.026   .     S
H54     S59    10.005   .     S
H54     Ce64    10.009   .     S
S55     H56    9.975   .     S
S55     Ce57    9.983   .     S
S55     Ce58    10.009   .     S
S55     Ti65    10.006   .     S
H56     Ce57    10.001   .     S
Ce57     Ce58    9.981   .     S
Ce57     Er176    10.027   .     S
Ce58     H60    10.009   .     S
Ce58     Er179    10.027   .     S
S59     H62    9.99   1_554     S
S59     H60    9.975   .     S
S59     Ce64    9.983   .     S
S59     Ce63    10.009   .     S
H60     S61    9.99   .     S
H60     Ce64    10.001   .     S
H60     H62    10.026   1_554     S
S61     H62    9.975   1_554     S
S61     Ce63    9.983   .     S
S61     H50    10.005   1_554     S
S61     Ce64    10.009   .     S
S61     Ti45    10.006   1_554     S
H62     V44    10.001   1_556     S
H62     S59    9.99   1_556     S
H62     S61    9.975   1_556     S
H62     Ce63    10.001   1_556     S
H62     H60    10.026   1_556     S
Ce63     H62    10.001   1_554     S
Ce63     Ce64    9.981   .     S
Ce63     H50    10.009   1_554     S
Ti65     V66    9.979   .     S
Ti65     Er68    10.01   .     S
V66     Er68    10.006   .     S
Er67     Ce172    10.027   .     S
Er69     Ce99    10.027   .     S
Er70     Ce100    10.027   .     S
Er71     V40    10.006   1_556     S
Er71     Ce171    10.027   .     S
Ti73     V74    9.979   1_554     S
Ti73     Er107    10.01   .     S
Ti73     S95    10.006   .     S
V74     Ti73    9.979   1_556     S
V74     H90    10.001   .     S
V74     Er107    10.006   1_556     S
Ti75     V76    9.979   .     S
Ti75     Er105    10.01   .     S
Ti75     S89    10.006   .     S
V76     H84    10.001   .     S
V76     Er105    10.006   .     S
Ti77     V78    9.979   .     S
Ti77     Er104    10.01   .     S
Ti77     S83    10.006   .     S
V78     H96    10.001   .     S
V78     Er104    10.006   .     S
Ti79     V80    9.979   .     S
Ti79     Er103    10.01   .     S
Ti79     S91    10.006   1_554     S
V80     H98    10.001   .     S
V80     Er103    10.006   .     S
Ti81     V82    9.979   .     S
Ti81     Er108    10.01   .     S
Ti81     S97    10.006   .     S
V82     H86    10.001   .     S
V82     Er108    10.006   .     S
S83     H86    9.99   .     S
S83     H84    9.975   .     S
S83     Ce88    9.983   .     S
S83     Ce87    10.009   .     S
S83     H98    10.005   .     S
H84     S85    9.99   .     S
H84     Ce88    10.001   .     S
H84     H98    9.988   .     S
H84     H86    10.026   .     S
H84     S97    10.005   .     S
H84     Ce100    10.009   .     S
S85     H86    9.975   .     S
S85     Ce87    9.983   .     S
S85     Ce88    10.009   .     S
S85     H90    10.005   .     S
S85     Ti101    10.006   .     S
H86     Ce87    10.001   .     S
H86     H90    9.988   .     S
H86     S89    10.005   .     S
H86     Ce93    10.009   .     S
Ce87     Ce88    9.981   .     S
Ce87     H90    10.009   .     S
Ce87     Er215    10.027   .     S
Ce88     H98    10.009   .     S
Ce88     Er212    10.027   .     S
S89     H92    9.99   1_556     S
S89     H90    9.975   .     S
S89     Ce93    9.983   .     S
S89     Ce94    10.009   .     S
H90     S91    9.99   .     S
H90     Ce93    10.001   .     S
H90     H92    10.026   1_556     S
S91     H92    9.975   1_556     S
S91     Ce94    9.983   .     S
S91     H96    10.005   1_556     S
S91     Ce93    10.009   .     S
S91     Ti79    10.006   1_556     S
H92     S89    9.99   1_554     S
H92     H96    9.988   .     S
H92     S91    9.975   1_554     S
H92     Ce94    10.001   1_554     S
H92     V102    10.001   1_554     S
H92     H90    10.026   1_554     S
H92     S95    10.005   .     S
H92     Ce99    10.009   .     S
Ce93     Ce94    9.981   .     S
Ce93     Er143    10.027   .     S
Ce94     H92    10.001   1_556     S
Ce94     H96    10.009   1_556     S
Ce94     Er140    10.027   .     S
S95     H98    9.99   .     S
S95     H96    9.975   .     S
S95     Ce99    9.983   .     S
S95     Ce100    10.009   .     S
H96     S97    9.99   .     S
H96     Ce99    10.001   .     S
H96     H98    10.026   .     S
H96     S91    10.005   1_554     S
H96     Ce94    10.009   1_554     S
S97     H98    9.975   .     S
S97     Ce100    9.983   .     S
S97     Ce99    10.009   .     S
H98     Ce100    10.001   .     S
Ce99     Ce100    9.981   .     S
Ti101     V102    9.979   .     S
Ti101     Er106    10.01   .     S
V102     H92    10.001   1_556     S
V102     Er106    10.006   .     S
Er103     Ce195    10.027   .     S
Er104     Ce130    10.027   .     S
Er107     V74    10.006   1_554     S
Er107     Ce196    10.027   .     S
Er108     Ce129    10.027   .     S
Ti109     V110    9.979   .     S
Ti109     Er144    10.01   .     S
Ti109     S125    10.006   .     S
V110     H120    10.001   1_544     S
V110     Er144    10.006   .     S
Ti111     V112    9.979   .     S
Ti111     Er139    10.01   .     S
Ti111     S121    10.006   .     S
V112     H128    10.001   1_565     S
V112     Er139    10.006   .     S
Ti113     V114    9.979   1_556     S
Ti113     Er140    10.01   .     S
Ti113     S133    10.006   .     S
V114     Ti113    9.979   1_554     S
V114     H122    10.001   .     S
V114     Er140    10.006   1_554     S
Ti115     V116    9.979   .     S
Ti115     Er143    10.01   .     S
Ti115     S119    10.006   1_556     S
V116     H132    10.001   .     S
V116     Er143    10.006   .     S
Ti117     V118    9.979   .     S
Ti117     Er142    10.01   .     S
Ti117     S131    10.006   .     S
V118     H126    10.001   .     S
V118     Er142    10.006   .     S
S119     H122    9.99   .     S
S119     H120    9.975   1_544     S
S119     Ce123    9.983   1_545     S
S119     H134    10.005   1_544     S
S119     Ce124    10.009   1_545     S
S119     Ti115    10.006   1_554     S
H120     V110    10.001   1_566     S
H120     S121    9.99   1_556     S
H120     H134    9.988   .     S
H120     S119    9.975   1_566     S
H120     Ce123    10.001   1_556     S
H120     H122    10.026   1_566     S
H120     S133    10.005   1_565     S
H120     Ce136    10.009   .     S
S121     H120    9.99   1_554     S
S121     H122    9.975   1_565     S
S121     Ce124    9.983   .     S
S121     H126    10.005   .     S
S121     Ce123    10.009   .     S
H122     H126    9.988   1_545     S
H122     S121    9.975   1_545     S
H122     Ce124    10.001   1_545     S
H122     H120    10.026   1_544     S
H122     S125    10.005   .     S
H122     Ce130    10.009   .     S
Ce123     Ce124    9.981   .     S
Ce123     S119    9.983   1_565     S
Ce123     H120    10.001   1_554     S
Ce123     H134    10.009   1_554     S
Ce123     Er177    10.027   .     S
Ce124     H122    10.001   1_565     S
Ce124     H126    10.009   .     S
Ce124     S119    10.009   1_565     S
Ce124     Er178    10.027   .     S
S125     H128    9.99   .     S
S125     H126    9.975   1_545     S
S125     Ce130    9.983   .     S
S125     Ce129    10.009   .     S
H126     S127    9.99   1_565     S
H126     H122    9.988   1_565     S
H126     S125    9.975   1_565     S
H126     Ce130    10.001   1_565     S
H126     H128    10.026   1_565     S
S127     H126    9.99   1_545     S
S127     H128    9.975   .     S
S127     Ce129    9.983   .     S
S127     Ce130    10.009   .     S
S127     H132    10.005   .     S
S127     Ti137    10.006   1_545     S
H128     V112    10.001   1_545     S
H128     Ce129    10.001   .     S
H128     H132    9.988   .     S
H128     H126    10.026   1_545     S
H128     S131    10.005   1_545     S
H128     Ce135    10.009   .     S
Ce129     Ce130    9.981   .     S
Ce129     H132    10.009   .     S
Ce130     H126    10.001   1_545     S
S131     H134    9.99   .     S
S131     H132    9.975   1_565     S
S131     Ce135    9.983   1_565     S
S131     H128    10.005   1_565     S
S131     Ce136    10.009   .     S
H132     S133    9.99   .     S
H132     S131    9.975   1_545     S
H132     Ce135    10.001   .     S
H132     H134    10.026   1_545     S
S133     H134    9.975   1_545     S
S133     Ce136    9.983   1_545     S
S133     H120    10.005   1_545     S
S133     Ce135    10.009   .     S
H134     S133    9.975   1_565     S
H134     Ce136    10.001   .     S
H134     V138    10.001   .     S
H134     H132    10.026   1_565     S
H134     S119    10.005   1_566     S
H134     Ce123    10.009   1_556     S
Ce135     S131    9.983   1_545     S
Ce135     Ce136    9.981   1_545     S
Ce136     Ce135    9.981   1_565     S
Ce136     S133    9.983   1_565     S
Ti137     V138    9.979   .     S
Ti137     Er141    10.01   .     S
Ti137     S127    10.006   1_565     S
V138     Er141    10.006   .     S
Er140     V114    10.006   1_556     S
Er141     Ce159    10.027   .     S
Er142     Ce160    10.027   .     S
Ti145     V146    9.979   1_554     S
Ti145     Er177    10.01   .     S
Ti145     S163    10.006   .     S
V146     Ti145    9.979   1_556     S
V146     H168    10.001   .     S
V146     Er177    10.006   1_556     S
Ti147     V148    9.979   .     S
Ti147     Er179    10.01   .     S
Ti147     S155    10.006   1_655     S
V148     H164    10.001   .     S
V148     Er179    10.006   .     S
Ti149     V150    9.979   .     S
Ti149     Er176    10.01   .     S
Ti149     S161    10.006   .     S
V150     H158    10.001   .     S
V150     Er176    10.006   .     S
Ti151     V152    9.979   .     S
Ti151     Er180    10.01   .     S
Ti151     S167    10.006   .     S
V152     H156    10.001   1_655     S
V152     Er180    10.006   .     S
Ti153     V154    9.979   .     S
Ti153     Er175    10.01   .     S
Ti153     S157    10.006   .     S
V154     H170    10.001   1_456     S
V154     Er175    10.006   .     S
S155     H158    9.99   1_455     S
S155     H156    9.975   .     S
S155     Ce160    9.983   .     S
S155     H162    10.005   .     S
S155     Ce159    10.009   .     S
S155     Ti147    10.006   1_455     S
H156     V152    10.001   1_455     S
H156     S157    9.99   .     S
H156     H162    9.988   .     S
H156     Ce160    10.001   .     S
H156     H158    10.026   1_455     S
H156     S161    10.005   1_455     S
H156     Ce165    10.009   .     S
S157     H158    9.975   1_455     S
S157     Ce159    9.983   .     S
S157     Ce160    10.009   .     S
S157     H168    10.005   .     S
H158     S155    9.99   1_655     S
H158     S157    9.975   1_655     S
H158     Ce159    10.001   1_655     S
H158     H168    9.988   1_655     S
H158     H156    10.026   1_655     S
H158     S167    10.005   .     S
H158     Ce172    10.009   .     S
Ce159     H158    10.001   1_455     S
Ce159     Ce160    9.981   .     S
Ce159     H168    10.009   .     S
Ce160     H162    10.009   .     S
S161     H164    9.99   .     S
S161     H162    9.975   1_655     S
S161     Ce165    9.983   1_655     S
S161     H156    10.005   1_655     S
S161     Ce166    10.009   .     S
H162     S163    9.99   .     S
H162     S161    9.975   1_455     S
H162     Ce165    10.001   .     S
H162     V174    10.001   .     S
H162     H164    10.026   1_455     S
S163     H164    9.975   1_455     S
S163     Ce166    9.983   1_455     S
S163     Ce165    10.009   .     S
S163     H170    10.005   1_455     S
H164     S163    9.975   1_655     S
H164     Ce166    10.001   .     S
H164     H170    9.988   .     S
H164     H162    10.026   1_655     S
H164     S169    10.005   1_654     S
H164     Ce171    10.009   1_554     S
Ce165     Ce166    9.981   1_455     S
Ce165     S161    9.983   1_455     S
Ce165     Er216    10.027   .     S
Ce166     S163    9.983   1_655     S
Ce166     Ce165    9.981   1_655     S
Ce166     H170    10.009   .     S
Ce166     Er211    10.027   .     S
S167     H170    9.99   1_556     S
S167     H168    9.975   1_655     S
S167     Ce172    9.983   .     S
S167     Ce171    10.009   .     S
H168     S169    9.99   .     S
H168     H158    9.988   1_455     S
H168     S167    9.975   1_455     S
H168     Ce172    10.001   1_455     S
H168     H170    10.026   1_456     S
S169     H170    9.975   1_456     S
S169     Ce171    9.983   1_455     S
S169     H164    10.005   1_456     S
S169     Ce172    10.009   1_455     S
S169     Ti173    10.006   1_556     S
H170     V154    10.001   1_654     S
H170     S167    9.99   1_554     S
H170     S169    9.975   1_654     S
H170     Ce171    10.001   1_554     S
H170     H168    10.026   1_654     S
H170     S163    10.005   1_655     S
Ce171     Ce172    9.981   .     S
Ce171     S169    9.983   1_655     S
Ce171     H170    10.001   1_556     S
Ce171     H164    10.009   1_556     S
Ce172     H168    10.001   1_655     S
Ce172     S169    10.009   1_655     S
Ti173     V174    9.979   .     S
Ti173     Er178    10.01   .     S
Ti173     S169    10.006   1_554     S
V174     Er178    10.006   .     S
Er175     Ce207    10.027   .     S
Er177     V146    10.006   1_554     S
Er180     Ce208    10.027   .     S
Ti181     V182    9.979   .     S
Ti181     Er215    10.01   .     S
Ti181     S199    10.006   .     S
V182     H204    10.001   .     S
V182     Er215    10.006   .     S
Ti183     V184    9.979   .     S
Ti183     Er216    10.01   .     S
Ti183     S191    10.006   .     S
V184     H200    10.001   1_455     S
V184     Er216    10.006   .     S
Ti185     V186    9.979   1_556     S
Ti185     Er213    10.01   .     S
Ti185     S203    10.006   .     S
V186     Ti185    9.979   1_554     S
V186     H192    10.001   .     S
V186     Er213    10.006   1_554     S
Ti187     V188    9.979   .     S
Ti187     Er214    10.01   .     S
Ti187     S193    10.006   1_656     S
V188     H206    10.001   .     S
V188     Er214    10.006   .     S
Ti189     V190    9.979   .     S
Ti189     Er211    10.01   .     S
Ti189     S197    10.006   .     S
V190     H194    10.001   1_654     S
V190     Er211    10.006   .     S
S191     H194    9.99   1_554     S
S191     H192    9.975   1_455     S
S191     Ce195    9.983   .     S
S191     Ce196    10.009   .     S
S191     H198    10.005   .     S
H192     S193    9.99   1_655     S
H192     S191    9.975   1_655     S
H192     Ce195    10.001   1_655     S
H192     H198    9.988   1_655     S
H192     H194    10.026   1_654     S
H192     S197    10.005   .     S
H192     Ce202    10.009   .     S
S193     H192    9.99   1_455     S
S193     H194    9.975   1_554     S
S193     Ce196    9.983   .     S
S193     H204    10.005   1_554     S
S193     Ce195    10.009   .     S
S193     Ti187    10.006   1_454     S
H194     V190    10.001   1_456     S
H194     S191    9.99   1_556     S
H194     H204    9.988   .     S
H194     S193    9.975   1_556     S
H194     Ce196    10.001   1_556     S
H194     H192    10.026   1_456     S
H194     S203    10.005   1_455     S
H194     Ce207    10.009   .     S
Ce195     H192    10.001   1_455     S
Ce195     Ce196    9.981   .     S
Ce195     H198    10.009   .     S
Ce196     H194    10.001   1_554     S
Ce196     H204    10.009   1_554     S
S197     H200    9.99   .     S
S197     H198    9.975   1_655     S
S197     Ce202    9.983   .     S
S197     Ce201    10.009   .     S
H198     S199    9.99   .     S
H198     H192    9.988   1_455     S
H198     S197    9.975   1_455     S
H198     Ce202    10.001   1_455     S
H198     V210    10.001   .     S
H198     H200    10.026   1_455     S
S199     H200    9.975   1_455     S
S199     Ce201    9.983   1_455     S
S199     Ce202    10.009   1_455     S
S199     H206    10.005   1_455     S
H200     V184    10.001   1_655     S
H200     S199    9.975   1_655     S
H200     Ce201    10.001   .     S
H200     H206    9.988   .     S
H200     H198    10.026   1_655     S
H200     S205    10.005   1_655     S
H200     Ce208    10.009   .     S
Ce201     S199    9.983   1_655     S
Ce201     Ce202    9.981   .     S
Ce201     H206    10.009   .     S
Ce202     H198    10.001   1_655     S
Ce202     S199    10.009   1_655     S
S203     H206    9.99   .     S
S203     H204    9.975   1_655     S
S203     Ce207    9.983   1_655     S
S203     H194    10.005   1_655     S
S203     Ce208    10.009   .     S
H204     S205    9.99   .     S
H204     S203    9.975   1_455     S
H204     Ce207    10.001   .     S
H204     H206    10.026   1_455     S
H204     S193    10.005   1_556     S
H204     Ce196    10.009   1_556     S
S205     H206    9.975   1_455     S
S205     Ce208    9.983   1_455     S
S205     H200    10.005   1_455     S
S205     Ce207    10.009   .     S
S205     Ti209    10.006   .     S
H206     S205    9.975   1_655     S
H206     Ce208    10.001   .     S
H206     H204    10.026   1_655     S
H206     S199    10.005   1_655     S
Ce207     S203    9.983   1_455     S
Ce207     Ce208    9.981   1_455     S
Ce208     Ce207    9.981   1_655     S
Ce208     S205    9.983   1_655     S
Ti209     V210    9.979   .     S
Ti209     Er212    10.01   .     S
V210     Er212    10.006   .     S
Er213     V186    10.006   1_556     S
