data_ttta
_audit_creation_date              2020-02-04
_audit_creation_method            'Pymatgen'
_symmetry_space_group_name_H-M    'P1'
_symmetry_Int_Tables_number       1
loop_
_symmetry_equiv_pos_as_xyz
  x,y,z
_cell_length_a                    66.9212
_cell_length_b                    66.9212
_cell_length_c                    66.9212
_cell_angle_alpha                 90.0
_cell_angle_beta                 90.0
_cell_angle_gamma                 90.0
loop_
_atom_site_label
_atom_site_type_symbol
_atom_site_fract_x
_atom_site_fract_y
_atom_site_fract_z
Er1     Er     0.5306   0.6363   0.6363
Er2     Er     0.6363   0.5306   0.6363
Er3     Er     0.6363   0.6363   0.5306
Er4     Er     0.0306   0.6363   0.1363
Er5     Er     0.1363   0.5306   0.1363
Er6     Er     0.1363   0.6363   0.0306
Er7     Er     0.6363   0.0306   0.1363
Er8     Er     0.5306   0.1363   0.1363
Er9     Er     0.6363   0.1363   0.0306
V10     V     0.5915   0.3028   0.6972
V11     V     0.6972   0.4085   0.6972
V12     V     0.6972   0.3028   0.5915
V13     V     0.8028   0.1972   0.5915
V14     V     0.5915   0.1972   0.8028
V15     V     0.8028   0.0915   0.6972
V16     V     0.6972   0.0915   0.8028
V17     V     0.8028   0.3028   0.9085
V18     V     0.6972   0.1972   0.9085
V19     V     0.8028   0.4085   0.8028
V20     V     0.9085   0.3028   0.8028
V21     V     0.9085   0.1972   0.6972
Er22     Er     0.1363   0.1363   0.5306
Er23     Er     0.0306   0.1363   0.6363
Er24     Er     0.1363   0.0306   0.6363
Er25     Er     0.3637   0.6363   0.4694
Er26     Er     0.4694   0.6363   0.3637
Er27     Er     0.3637   0.5306   0.3637
Er28     Er     0.3637   0.4694   0.6363
Er29     Er     0.4694   0.3637   0.6363
Er30     Er     0.3637   0.3637   0.5306
Er31     Er     0.9694   0.8637   0.6363
Er32     Er     0.8637   0.8637   0.5306
Er33     Er     0.8637   0.9694   0.6363
V34     V     0.4085   0.6972   0.6972
V35     V     0.3028   0.5915   0.6972
V36     V     0.3028   0.6972   0.5915
V37     V     0.4085   0.8028   0.8028
V38     V     0.3028   0.8028   0.9085
V39     V     0.1972   0.6972   0.9085
V40     V     0.3028   0.9085   0.8028
V41     V     0.1972   0.9085   0.6972
V42     V     0.1972   0.5915   0.8028
V43     V     0.0915   0.6972   0.8028
V44     V     0.0915   0.8028   0.6972
V45     V     0.1972   0.8028   0.5915
Er46     Er     0.6363   0.8637   0.9694
Er47     Er     0.5306   0.8637   0.8637
Er48     Er     0.6363   0.9694   0.8637
Er49     Er     0.8637   0.6363   0.9694
Er50     Er     0.8637   0.5306   0.8637
Er51     Er     0.9694   0.6363   0.8637
V52     V     0.6972   0.6972   0.4085
V53     V     0.8028   0.8028   0.4085
V54     V     0.5915   0.6972   0.3028
V55     V     0.5915   0.8028   0.1972
V56     V     0.9085   0.8028   0.3028
V57     V     0.9085   0.6972   0.1972
V58     V     0.8028   0.9085   0.3028
V59     V     0.6972   0.9085   0.1972
V60     V     0.6972   0.5915   0.3028
V61     V     0.8028   0.5915   0.1972
V62     V     0.8028   0.6972   0.0915
V63     V     0.6972   0.8028   0.0915
Er64     Er     0.3637   0.1363   0.9694
Er65     Er     0.4694   0.1363   0.8637
Er66     Er     0.3637   0.0306   0.8637
Er67     Er     0.1363   0.3637   0.9694
Er68     Er     0.1363   0.4694   0.8637
Er69     Er     0.0306   0.3637   0.8637
Er70     Er     0.9694   0.3637   0.1363
Er71     Er     0.8637   0.4694   0.1363
Er72     Er     0.8637   0.3637   0.0306
Er73     Er     0.3637   0.9694   0.1363
Er74     Er     0.4694   0.8637   0.1363
Er75     Er     0.3637   0.8637   0.0306
Er76     Er     0.1363   0.9694   0.3637
Er77     Er     0.1363   0.8637   0.4694
Er78     Er     0.0306   0.8637   0.3637
Er79     Er     0.9694   0.1363   0.3637
Er80     Er     0.8637   0.1363   0.4694
Er81     Er     0.8637   0.0306   0.3637
V82     V     0.4085   0.3028   0.3028
V83     V     0.4085   0.1972   0.1972
V84     V     0.3028   0.3028   0.4085
V85     V     0.1972   0.1972   0.4085
V86     V     0.3028   0.4085   0.3028
V87     V     0.1972   0.4085   0.1972
V88     V     0.3028   0.1972   0.0915
V89     V     0.1972   0.3028   0.0915
V90     V     0.1972   0.0915   0.3028
V91     V     0.3028   0.0915   0.1972
V92     V     0.0915   0.1972   0.3028
V93     V     0.0915   0.3028   0.1972
Er94     Er     0.6363   0.4694   0.3637
Er95     Er     0.6363   0.3637   0.4694
Er96     Er     0.5306   0.3637   0.3637
loop_
_geom_bond_atom_site_label_1
_geom_bond_atom_site_label_2
_geom_bond_distance
_geom_bond_site_symmetry_2
_ccdc_geom_bond_type
Er1     Er2    10.0   .     S
Er1     Er3    10.0   .     S
Er1     V34    10.0   .     S
Er2     Er3    10.0   .     S
Er2     V11    10.0   .     S
Er3     V52    10.0   .     S
Er4     Er6    10.0   .     S
Er4     Er5    10.0   .     S
Er4     V57    10.0   1_455     S
Er5     Er6    10.0   .     S
Er5     V87    10.0   .     S
Er6     V39    10.0   1_554     S
Er7     Er9    10.0   .     S
Er7     Er8    10.0   .     S
Er7     V59    10.0   1_545     S
Er8     Er9    10.0   .     S
Er8     V83    10.0   .     S
Er9     V18    10.0   1_554     S
V10     V12    10.0   .     S
V10     V11    10.0   .     S
V10     V14    10.0   .     S
V10     Er29    10.0   .     S
V11     V12    10.0   .     S
V11     V19    10.0   .     S
V12     V13    10.0   .     S
V12     Er95    10.0   .     S
V13     V15    10.0   .     S
V13     V21    10.0   .     S
V13     Er80    10.0   .     S
V14     V16    10.0   .     S
V14     V18    10.0   .     S
V14     Er65    10.0   .     S
V15     V21    10.0   .     S
V15     V16    10.0   .     S
V15     Er33    10.0   1_545     S
V16     V18    10.0   .     S
V16     Er48    10.0   1_545     S
V17     V18    10.0   .     S
V17     V19    10.0   .     S
V17     V20    10.0   .     S
V17     Er72    10.0   1_556     S
V18     Er9    10.0   1_556     S
V19     V20    10.0   .     S
V19     Er50    10.0   .     S
V20     V21    10.0   .     S
V20     Er69    10.0   1_655     S
V21     Er23    10.0   1_655     S
Er22     Er24    10.0   .     S
Er22     Er23    10.0   .     S
Er22     V85    10.0   .     S
Er23     Er24    10.0   .     S
Er23     V21    10.0   1_455     S
Er24     V41    10.0   1_545     S
Er25     Er26    10.0   .     S
Er25     Er27    10.0   .     S
Er25     V36    10.0   .     S
Er26     Er27    10.0   .     S
Er26     V54    10.0   .     S
Er27     V86    10.0   .     S
Er28     Er29    10.0   .     S
Er28     Er30    10.0   .     S
Er28     V35    10.0   .     S
Er29     Er30    10.0   .     S
Er30     V84    10.0   .     S
Er31     Er32    10.0   .     S
Er31     Er33    10.0   .     S
Er31     V44    10.0   1_655     S
Er32     Er33    10.0   .     S
Er32     V53    10.0   .     S
Er33     V15    10.0   1_565     S
V34     V36    10.0   .     S
V34     V35    10.0   .     S
V34     V37    10.0   .     S
V35     V36    10.0   .     S
V35     V42    10.0   .     S
V36     V45    10.0   .     S
V37     V40    10.0   .     S
V37     V38    10.0   .     S
V37     Er47    10.0   .     S
V38     V40    10.0   .     S
V38     V39    10.0   .     S
V38     Er75    10.0   1_556     S
V39     Er6    10.0   1_556     S
V39     V43    10.0   .     S
V39     V42    10.0   .     S
V40     V41    10.0   .     S
V40     Er66    10.0   1_565     S
V41     Er24    10.0   1_565     S
V41     V44    10.0   .     S
V41     V45    10.0   .     S
V42     V43    10.0   .     S
V42     Er68    10.0   .     S
V43     V44    10.0   .     S
V43     Er51    10.0   1_455     S
V44     V45    10.0   .     S
V44     Er31    10.0   1_455     S
V45     Er77    10.0   .     S
Er46     Er47    10.0   .     S
Er46     Er48    10.0   .     S
Er46     V63    10.0   1_556     S
Er47     Er48    10.0   .     S
Er48     V16    10.0   1_565     S
Er49     Er50    10.0   .     S
Er49     Er51    10.0   .     S
Er49     V62    10.0   1_556     S
Er50     Er51    10.0   .     S
Er51     V43    10.0   1_655     S
V52     V60    10.0   .     S
V52     V54    10.0   .     S
V52     V53    10.0   .     S
V53     V56    10.0   .     S
V53     V58    10.0   .     S
V54     V60    10.0   .     S
V54     V55    10.0   .     S
V55     V63    10.0   .     S
V55     V59    10.0   .     S
V55     Er74    10.0   .     S
V56     V58    10.0   .     S
V56     V57    10.0   .     S
V56     Er78    10.0   1_655     S
V57     Er4    10.0   1_655     S
V57     V62    10.0   .     S
V57     V61    10.0   .     S
V58     V59    10.0   .     S
V58     Er81    10.0   1_565     S
V59     Er7    10.0   1_565     S
V59     V63    10.0   .     S
V60     V61    10.0   .     S
V60     Er94    10.0   .     S
V61     V62    10.0   .     S
V61     Er71    10.0   .     S
V62     V63    10.0   .     S
V62     Er49    10.0   1_554     S
V63     Er46    10.0   1_554     S
Er64     Er65    10.0   .     S
Er64     Er66    10.0   .     S
Er64     V88    10.0   1_556     S
Er65     Er66    10.0   .     S
Er66     V40    10.0   1_545     S
Er67     Er68    10.0   .     S
Er67     Er69    10.0   .     S
Er67     V89    10.0   1_556     S
Er68     Er69    10.0   .     S
Er69     V20    10.0   1_455     S
Er70     Er72    10.0   .     S
Er70     Er71    10.0   .     S
Er70     V93    10.0   1_655     S
Er71     Er72    10.0   .     S
Er72     V17    10.0   1_554     S
Er73     Er75    10.0   .     S
Er73     Er74    10.0   .     S
Er73     V91    10.0   1_565     S
Er74     Er75    10.0   .     S
Er75     V38    10.0   1_554     S
Er76     Er77    10.0   .     S
Er76     Er78    10.0   .     S
Er76     V90    10.0   1_565     S
Er77     Er78    10.0   .     S
Er78     V56    10.0   1_455     S
Er79     Er81    10.0   .     S
Er79     Er80    10.0   .     S
Er79     V92    10.0   1_655     S
Er80     Er81    10.0   .     S
Er81     V58    10.0   1_545     S
V82     V83    10.0   .     S
V82     V84    10.0   .     S
V82     V86    10.0   .     S
V82     Er96    10.0   .     S
V83     V91    10.0   .     S
V83     V88    10.0   .     S
V84     V85    10.0   .     S
V84     V86    10.0   .     S
V85     V92    10.0   .     S
V85     V90    10.0   .     S
V86     V87    10.0   .     S
V87     V93    10.0   .     S
V87     V89    10.0   .     S
V88     V89    10.0   .     S
V88     V91    10.0   .     S
V88     Er64    10.0   1_554     S
V89     V93    10.0   .     S
V89     Er67    10.0   1_554     S
V90     V91    10.0   .     S
V90     V92    10.0   .     S
V90     Er76    10.0   1_545     S
V91     Er73    10.0   1_545     S
V92     V93    10.0   .     S
V92     Er79    10.0   1_455     S
V93     Er70    10.0   1_455     S
Er94     Er95    10.0   .     S
Er94     Er96    10.0   .     S
Er95     Er96    10.0   .     S
