data_twfe
_audit_creation_date              2020-02-04
_audit_creation_method            'Pymatgen'
_symmetry_space_group_name_H-M    'P1'
_symmetry_Int_Tables_number       1
loop_
_symmetry_equiv_pos_as_xyz
  x,y,z
_cell_length_a                    39.4283
_cell_length_b                    39.4283
_cell_length_c                    39.4283
_cell_angle_alpha                 90.0
_cell_angle_beta                 90.0
_cell_angle_gamma                 90.0
loop_
_atom_site_label
_atom_site_type_symbol
_atom_site_fract_x
_atom_site_fract_y
_atom_site_fract_z
V1     V     0.0   0.6365   0.8234
V2     V     0.0   0.3635   0.8234
V3     V     0.1365   0.5   0.6766
V4     V     0.8635   0.5   0.6766
V5     V     0.6365   0.0   0.8234
V6     V     0.3635   0.0   0.8234
V7     V     0.5   0.1365   0.6766
V8     V     0.5   0.8635   0.6766
V9     V     0.3635   0.8234   0.0
V10     V     0.6365   0.8234   0.0
V11     V     0.5   0.6766   0.1365
V12     V     0.5   0.6766   0.8635
V13     V     0.8234   0.6365   0.0
V14     V     0.8234   0.3635   0.0
V15     V     0.6766   0.5   0.1365
V16     V     0.6766   0.5   0.8635
V17     V     0.0   0.8234   0.6365
V18     V     0.0   0.8234   0.3635
V19     V     0.1365   0.6766   0.5
V20     V     0.8635   0.6766   0.5
V21     V     0.8234   0.0   0.6365
V22     V     0.8234   0.0   0.3635
V23     V     0.6766   0.1365   0.5
V24     V     0.6766   0.8635   0.5
V25     V     0.6365   0.0   0.1766
V26     V     0.3635   0.0   0.1766
V27     V     0.5   0.1365   0.3234
V28     V     0.5   0.8635   0.3234
V29     V     0.6365   0.1766   0.0
V30     V     0.3635   0.1766   0.0
V31     V     0.5   0.3234   0.1365
V32     V     0.5   0.3234   0.8635
V33     V     0.1766   0.3635   0.0
V34     V     0.1766   0.6365   0.0
V35     V     0.3234   0.5   0.1365
V36     V     0.3234   0.5   0.8635
V37     V     0.0   0.6365   0.1766
V38     V     0.0   0.3635   0.1766
V39     V     0.1365   0.5   0.3234
V40     V     0.8635   0.5   0.3234
V41     V     0.1766   0.0   0.6365
V42     V     0.1766   0.0   0.3635
V43     V     0.3234   0.1365   0.5
V44     V     0.3234   0.8635   0.5
V45     V     0.0   0.1766   0.6365
V46     V     0.0   0.1766   0.3635
V47     V     0.1365   0.3234   0.5
V48     V     0.8635   0.3234   0.5
loop_
_geom_bond_atom_site_label_1
_geom_bond_atom_site_label_2
_geom_bond_distance
_geom_bond_site_symmetry_2
_ccdc_geom_bond_type
V1     V2    10.762   .     S
V1     V17    10.42   .     S
V1     V13    9.849   1_456     S
V1     V34    9.849   1_556     S
V1     V4    9.559   1_455     S
V1     V3    9.559   .     S
V2     V45    10.42   .     S
V2     V33    9.849   1_556     S
V2     V14    9.849   1_456     S
V2     V4    9.559   1_455     S
V2     V3    9.559   .     S
V3     V4    10.762   1_455     S
V3     V36    10.42   .     S
V3     V47    9.849   .     S
V3     V19    9.849   .     S
V4     V3    10.762   1_655     S
V4     V16    10.42   .     S
V4     V48    9.849   .     S
V4     V20    9.849   .     S
V4     V1    9.559   1_655     S
V4     V2    9.559   1_655     S
V5     V6    10.762   .     S
V5     V21    10.42   .     S
V5     V29    9.849   1_556     S
V5     V10    9.849   1_546     S
V5     V8    9.559   1_545     S
V5     V7    9.559   .     S
V6     V41    10.42   .     S
V6     V9    9.849   1_546     S
V6     V30    9.849   1_556     S
V6     V8    9.559   1_545     S
V6     V7    9.559   .     S
V7     V8    10.762   1_545     S
V7     V32    10.42   .     S
V7     V43    9.849   .     S
V7     V23    9.849   .     S
V8     V7    10.762   1_565     S
V8     V12    10.42   .     S
V8     V44    9.849   .     S
V8     V24    9.849   .     S
V8     V5    9.559   1_565     S
V8     V6    9.559   1_565     S
V9     V10    10.762   .     S
V9     V34    10.42   .     S
V9     V6    9.849   1_564     S
V9     V26    9.849   1_565     S
V9     V12    9.559   1_554     S
V9     V11    9.559   .     S
V10     V13    10.42   .     S
V10     V25    9.849   1_565     S
V10     V5    9.849   1_564     S
V10     V12    9.559   1_554     S
V10     V11    9.559   .     S
V11     V12    10.762   1_554     S
V11     V28    10.42   .     S
V11     V35    9.849   .     S
V11     V15    9.849   .     S
V12     V11    10.762   1_556     S
V12     V36    9.849   .     S
V12     V16    9.849   .     S
V12     V9    9.559   1_556     S
V12     V10    9.559   1_556     S
V13     V14    10.762   .     S
V13     V1    9.849   1_654     S
V13     V37    9.849   1_655     S
V13     V16    9.559   1_554     S
V13     V15    9.559   .     S
V14     V29    10.42   .     S
V14     V38    9.849   1_655     S
V14     V2    9.849   1_654     S
V14     V16    9.559   1_554     S
V14     V15    9.559   .     S
V15     V16    10.762   1_554     S
V15     V40    10.42   .     S
V15     V31    9.849   .     S
V16     V15    10.762   1_556     S
V16     V32    9.849   .     S
V16     V13    9.559   1_556     S
V16     V14    9.559   1_556     S
V17     V18    10.762   .     S
V17     V41    9.849   1_565     S
V17     V21    9.849   1_465     S
V17     V20    9.559   1_455     S
V17     V19    9.559   .     S
V18     V37    10.42   .     S
V18     V22    9.849   1_465     S
V18     V42    9.849   1_565     S
V18     V20    9.559   1_455     S
V18     V19    9.559   .     S
V19     V20    10.762   1_455     S
V19     V44    10.42   .     S
V19     V39    9.849   .     S
V20     V19    10.762   1_655     S
V20     V24    10.42   .     S
V20     V40    9.849   .     S
V20     V17    9.559   1_655     S
V20     V18    9.559   1_655     S
V21     V22    10.762   .     S
V21     V45    9.849   1_655     S
V21     V17    9.849   1_645     S
V21     V24    9.559   1_545     S
V21     V23    9.559   .     S
V22     V25    10.42   .     S
V22     V46    9.849   1_655     S
V22     V18    9.849   1_645     S
V22     V24    9.559   1_545     S
V22     V23    9.559   .     S
V23     V24    10.762   1_545     S
V23     V48    10.42   .     S
V23     V27    9.849   .     S
V24     V23    10.762   1_565     S
V24     V28    9.849   .     S
V24     V21    9.559   1_565     S
V24     V22    9.559   1_565     S
V25     V26    10.762   .     S
V25     V29    9.849   .     S
V25     V10    9.849   1_545     S
V25     V28    9.559   1_545     S
V25     V27    9.559   .     S
V26     V42    10.42   .     S
V26     V30    9.849   .     S
V26     V9    9.849   1_545     S
V26     V28    9.559   1_545     S
V26     V27    9.559   .     S
V27     V28    10.762   1_545     S
V27     V31    10.42   .     S
V27     V43    9.849   .     S
V28     V27    10.762   1_565     S
V28     V44    9.849   .     S
V28     V25    9.559   1_565     S
V28     V26    9.559   1_565     S
V29     V30    10.762   .     S
V29     V5    9.849   1_554     S
V29     V32    9.559   1_554     S
V29     V31    9.559   .     S
V30     V33    10.42   .     S
V30     V6    9.849   1_554     S
V30     V32    9.559   1_554     S
V30     V31    9.559   .     S
V31     V32    10.762   1_554     S
V31     V35    9.849   .     S
V32     V31    10.762   1_556     S
V32     V36    9.849   .     S
V32     V29    9.559   1_556     S
V32     V30    9.559   1_556     S
V33     V34    10.762   .     S
V33     V38    9.849   .     S
V33     V2    9.849   1_554     S
V33     V36    9.559   1_554     S
V33     V35    9.559   .     S
V34     V37    9.849   .     S
V34     V1    9.849   1_554     S
V34     V36    9.559   1_554     S
V34     V35    9.559   .     S
V35     V36    10.762   1_554     S
V35     V39    10.42   .     S
V36     V35    10.762   1_556     S
V36     V33    9.559   1_556     S
V36     V34    9.559   1_556     S
V37     V38    10.762   .     S
V37     V13    9.849   1_455     S
V37     V40    9.559   1_455     S
V37     V39    9.559   .     S
V38     V46    10.42   .     S
V38     V14    9.849   1_455     S
V38     V40    9.559   1_455     S
V38     V39    9.559   .     S
V39     V40    10.762   1_455     S
V39     V47    9.849   .     S
V40     V39    10.762   1_655     S
V40     V48    9.849   .     S
V40     V37    9.559   1_655     S
V40     V38    9.559   1_655     S
V41     V42    10.762   .     S
V41     V45    9.849   .     S
V41     V17    9.849   1_545     S
V41     V44    9.559   1_545     S
V41     V43    9.559   .     S
V42     V46    9.849   .     S
V42     V18    9.849   1_545     S
V42     V44    9.559   1_545     S
V42     V43    9.559   .     S
V43     V44    10.762   1_545     S
V43     V47    10.42   .     S
V44     V43    10.762   1_565     S
V44     V41    9.559   1_565     S
V44     V42    9.559   1_565     S
V45     V46    10.762   .     S
V45     V21    9.849   1_455     S
V45     V48    9.559   1_455     S
V45     V47    9.559   .     S
V46     V22    9.849   1_455     S
V46     V48    9.559   1_455     S
V46     V47    9.559   .     S
V47     V48    10.762   1_455     S
V48     V47    10.762   1_655     S
V48     V45    9.559   1_655     S
V48     V46    9.559   1_655     S
