data_umb
_audit_creation_date              2020-02-04
_audit_creation_method            'Pymatgen'
_symmetry_space_group_name_H-M    'P1'
_symmetry_Int_Tables_number       1
loop_
_symmetry_equiv_pos_as_xyz
  x,y,z
_cell_length_a                    34.7519
_cell_length_b                    34.7519
_cell_length_c                    23.8793
_cell_angle_alpha                 90.0
_cell_angle_beta                 90.0
_cell_angle_gamma                 120.0
loop_
_atom_site_label
_atom_site_type_symbol
_atom_site_fract_x
_atom_site_fract_y
_atom_site_fract_z
V1     V     0.8369   0.3911   0.9611
V2     V     0.5542   0.3911   0.0389
V3     V     0.6089   0.4458   0.6278
V4     V     0.6089   0.1631   0.7056
V5     V     0.5542   0.1631   0.2944
V6     V     0.8369   0.4458   0.3722
V7     V     0.1631   0.6089   0.9611
V8     V     0.4458   0.6089   0.0389
V9     V     0.4458   0.8369   0.2944
V10     V     0.1631   0.5542   0.3722
V11     V     0.3911   0.5542   0.6278
V12     V     0.3911   0.8369   0.7056
loop_
_geom_bond_atom_site_label_1
_geom_bond_atom_site_label_2
_geom_bond_distance
_geom_bond_site_symmetry_2
_ccdc_geom_bond_type
V1     V2    10.0   1_556     S
V1     V4    10.0   .     S
V1     V6    10.0   1_556     S
V1     V7    10.0   1_655     S
V2     V1    10.0   1_554     S
V2     V5    10.0   .     S
V2     V3    10.0   1_554     S
V2     V8    10.0   .     S
V3     V6    10.0   .     S
V3     V4    10.0   .     S
V3     V2    10.0   1_556     S
V3     V11    10.0   .     S
V4     V5    10.0   .     S
V4     V12    10.0   1_545     S
V5     V6    10.0   .     S
V5     V9    10.0   1_545     S
V6     V1    10.0   1_554     S
V6     V10    10.0   1_655     S
V7     V1    10.0   1_455     S
V7     V8    10.0   1_556     S
V7     V12    10.0   .     S
V7     V10    10.0   1_556     S
V8     V7    10.0   1_554     S
V8     V9    10.0   .     S
V8     V11    10.0   1_554     S
V9     V5    10.0   1_565     S
V9     V10    10.0   .     S
V9     V12    10.0   .     S
V10     V11    10.0   .     S
V10     V7    10.0   1_554     S
V10     V6    10.0   1_455     S
V11     V12    10.0   .     S
V11     V8    10.0   1_556     S
V12     V4    10.0   1_565     S
