data_urm
_audit_creation_date              2020-02-04
_audit_creation_method            'Pymatgen'
_symmetry_space_group_name_H-M    'P1'
_symmetry_Int_Tables_number       1
loop_
_symmetry_equiv_pos_as_xyz
  x,y,z
_cell_length_a                    48.9898
_cell_length_b                    48.9898
_cell_length_c                    48.9898
_cell_angle_alpha                 90.0
_cell_angle_beta                 90.0
_cell_angle_gamma                 90.0
loop_
_atom_site_label
_atom_site_type_symbol
_atom_site_fract_x
_atom_site_fract_y
_atom_site_fract_z
Er1     Er     0.75   0.75   0.5
Er2     Er     0.75   0.75   0.0
Er3     Er     0.75   0.0   0.75
Ti4     Ti     0.8333   0.9167   0.9167
Er5     Er     0.75   0.5   0.75
Er6     Er     0.5   0.75   0.75
Er7     Er     0.25   0.75   0.0
Ti8     Ti     0.4167   0.6667   0.9167
Ti9     Ti     0.0833   0.8333   0.9167
Ti10     Ti     0.5833   0.6667   0.0833
Er11     Er     0.5   0.75   0.25
Ti12     Ti     0.5833   0.8333   0.4167
Ti13     Ti     0.6667   0.5833   0.0833
Er14     Er     0.75   0.5   0.25
Ti15     Ti     0.8333   0.5833   0.4167
V16     V     0.5   0.5   0.0
Ti17     Ti     0.5833   0.5833   0.1667
Ti18     Ti     0.5833   0.6667   0.9167
Ti19     Ti     0.3333   0.5833   0.9167
Ti20     Ti     0.5833   0.3333   0.9167
Ti21     Ti     0.6667   0.5833   0.9167
Er22     Er     0.75   0.25   0.0
Ti23     Ti     0.8333   0.0833   0.9167
Ti24     Ti     0.6667   0.4167   0.9167
Ti25     Ti     0.6667   0.9167   0.4167
Er26     Er     0.75   0.0   0.25
Ti27     Ti     0.8333   0.9167   0.0833
Er28     Er     0.75   0.25   0.5
Ti29     Ti     0.6667   0.0833   0.5833
Ti30     Ti     0.8333   0.4167   0.5833
Er31     Er     0.5   0.25   0.75
Ti32     Ti     0.5833   0.0833   0.6667
Ti33     Ti     0.5833   0.4167   0.8333
Ti34     Ti     0.5833   0.9167   0.6667
Ti35     Ti     0.5833   0.9167   0.3333
V36     V     0.5   0.0   0.5
Ti37     Ti     0.3333   0.9167   0.5833
Ti38     Ti     0.5833   0.1667   0.5833
Ti39     Ti     0.6667   0.9167   0.5833
Er40     Er     0.25   0.0   0.75
Ti41     Ti     0.0833   0.9167   0.8333
Ti42     Ti     0.4167   0.9167   0.6667
Ti43     Ti     0.9167   0.6667   0.4167
Er44     Er     0.0   0.75   0.25
Ti45     Ti     0.9167   0.8333   0.0833
Er46     Er     0.25   0.75   0.5
Ti47     Ti     0.0833   0.6667   0.5833
Ti48     Ti     0.4167   0.8333   0.5833
Er49     Er     0.0   0.25   0.75
Ti50     Ti     0.9167   0.4167   0.6667
Ti51     Ti     0.9167   0.0833   0.8333
Er52     Er     0.25   0.5   0.75
Ti53     Ti     0.0833   0.5833   0.6667
Ti54     Ti     0.4167   0.5833   0.8333
Ti55     Ti     0.9167   0.5833   0.6667
Ti56     Ti     0.9167   0.5833   0.3333
V57     V     0.0   0.5   0.5
Ti58     Ti     0.1667   0.5833   0.5833
Ti59     Ti     0.9167   0.6667   0.5833
Ti60     Ti     0.9167   0.3333   0.5833
Ti61     Ti     0.9167   0.4167   0.3333
Ti62     Ti     0.0833   0.0833   0.8333
Ti63     Ti     0.0833   0.4167   0.6667
Ti64     Ti     0.0833   0.5833   0.3333
Ti65     Ti     0.0833   0.3333   0.5833
Ti66     Ti     0.9167   0.3333   0.4167
Ti67     Ti     0.0833   0.6667   0.4167
Ti68     Ti     0.1667   0.5833   0.4167
Ti69     Ti     0.0833   0.8333   0.0833
Ti70     Ti     0.1667   0.4167   0.5833
Ti71     Ti     0.4167   0.8333   0.4167
Ti72     Ti     0.4167   0.4167   0.8333
Ti73     Ti     0.4167   0.0833   0.6667
Ti74     Ti     0.5833   0.0833   0.3333
Ti75     Ti     0.4167   0.9167   0.3333
Ti76     Ti     0.8333   0.4167   0.4167
Ti77     Ti     0.4167   0.1667   0.5833
Ti78     Ti     0.8333   0.0833   0.0833
Ti79     Ti     0.5833   0.1667   0.4167
Ti80     Ti     0.6667   0.0833   0.4167
Ti81     Ti     0.3333   0.9167   0.4167
Ti82     Ti     0.3333   0.0833   0.5833
Ti83     Ti     0.6667   0.4167   0.0833
Ti84     Ti     0.4167   0.5833   0.1667
Ti85     Ti     0.5833   0.4167   0.1667
Ti86     Ti     0.5833   0.3333   0.0833
Ti87     Ti     0.4167   0.3333   0.9167
Ti88     Ti     0.4167   0.6667   0.0833
Ti89     Ti     0.3333   0.4167   0.9167
Ti90     Ti     0.3333   0.5833   0.0833
V91     V     0.0   0.0   0.0
Ti92     Ti     0.9167   0.9167   0.1667
Ti93     Ti     0.1667   0.9167   0.9167
Ti94     Ti     0.9167   0.1667   0.9167
Ti95     Ti     0.9167   0.0833   0.1667
Ti96     Ti     0.0833   0.9167   0.1667
Ti97     Ti     0.9167   0.1667   0.0833
Ti98     Ti     0.0833   0.1667   0.9167
Ti99     Ti     0.1667   0.0833   0.9167
Ti100     Ti     0.1667   0.9167   0.0833
Er101     Er     0.0   0.25   0.25
Er102     Er     0.25   0.0   0.25
Ti103     Ti     0.0833   0.0833   0.1667
Ti104     Ti     0.9167   0.9167   0.8333
Ti105     Ti     0.1667   0.0833   0.0833
Ti106     Ti     0.0833   0.1667   0.0833
Er107     Er     0.25   0.5   0.25
Er108     Er     0.25   0.25   0.5
Er109     Er     0.5   0.25   0.25
Ti110     Ti     0.0833   0.4167   0.3333
Ti111     Ti     0.1667   0.4167   0.4167
Ti112     Ti     0.4167   0.0833   0.3333
Ti113     Ti     0.4167   0.1667   0.4167
Ti114     Ti     0.4167   0.4167   0.1667
Ti115     Ti     0.5833   0.5833   0.8333
Er116     Er     0.25   0.25   0.0
Er117     Er     0.0   0.75   0.75
Ti118     Ti     0.9167   0.8333   0.9167
Ti119     Ti     0.0833   0.3333   0.4167
Ti120     Ti     0.8333   0.5833   0.5833
Ti121     Ti     0.5833   0.8333   0.5833
Ti122     Ti     0.3333   0.0833   0.4167
Ti123     Ti     0.3333   0.4167   0.0833
Ti124     Ti     0.4167   0.3333   0.0833
loop_
_geom_bond_atom_site_label_1
_geom_bond_atom_site_label_2
_geom_bond_distance
_geom_bond_site_symmetry_2
_ccdc_geom_bond_type
Er1     Ti12    10.0   .     S
Er1     Ti25    10.0   .     S
Er1     Ti39    10.0   .     S
Er1     Ti121    10.0   .     S
Er1     Ti120    10.0   .     S
Er1     Ti59    10.0   .     S
Er1     Ti43    10.0   .     S
Er1     Ti15    10.0   .     S
Er2     Ti10    10.0   .     S
Er2     Ti13    10.0   .     S
Er2     Ti21    10.0   1_554     S
Er2     Ti18    10.0   1_554     S
Er2     Ti4    10.0   1_554     S
Er2     Ti118    10.0   1_554     S
Er2     Ti45    10.0   .     S
Er2     Ti27    10.0   .     S
Er3     Ti29    10.0   .     S
Er3     Ti32    10.0   .     S
Er3     Ti34    10.0   1_545     S
Er3     Ti39    10.0   1_545     S
Er3     Ti104    10.0   1_545     S
Er3     Ti4    10.0   1_545     S
Er3     Ti23    10.0   .     S
Er3     Ti51    10.0   .     S
Ti4     Er2    10.0   1_556     S
Ti4     Er3    10.0   1_565     S
Ti4     V91    10.0   1_666     S
Er5     Ti55    10.0   .     S
Er5     Ti120    10.0   .     S
Er5     Ti30    10.0   .     S
Er5     Ti50    10.0   .     S
Er5     Ti115    10.0   .     S
Er5     Ti21    10.0   .     S
Er5     Ti24    10.0   .     S
Er5     Ti33    10.0   .     S
Er6     Ti42    10.0   .     S
Er6     Ti48    10.0   .     S
Er6     Ti121    10.0   .     S
Er6     Ti34    10.0   .     S
Er6     Ti18    10.0   .     S
Er6     Ti115    10.0   .     S
Er6     Ti54    10.0   .     S
Er6     Ti8    10.0   .     S
Er7     Ti100    10.0   .     S
Er7     Ti69    10.0   .     S
Er7     Ti9    10.0   1_554     S
Er7     Ti93    10.0   1_554     S
Er7     Ti8    10.0   1_554     S
Er7     Ti19    10.0   1_554     S
Er7     Ti90    10.0   .     S
Er7     Ti88    10.0   .     S
Ti8     Er7    10.0   1_556     S
Ti8     V16    10.0   1_556     S
Ti9     Er7    10.0   1_556     S
Ti9     V91    10.0   1_566     S
Ti9     Er117    10.0   .     S
Ti10     Er11    10.0   .     S
Ti10     V16    10.0   .     S
Er11     Ti17    10.0   .     S
Er11     Ti88    10.0   .     S
Er11     Ti84    10.0   .     S
Er11     Ti35    10.0   .     S
Er11     Ti12    10.0   .     S
Er11     Ti71    10.0   .     S
Er11     Ti75    10.0   .     S
Ti12     V36    10.0   1_565     S
Ti13     Er14    10.0   .     S
Ti13     V16    10.0   .     S
Er14     Ti17    10.0   .     S
Er14     Ti85    10.0   .     S
Er14     Ti83    10.0   .     S
Er14     Ti61    10.0   .     S
Er14     Ti76    10.0   .     S
Er14     Ti15    10.0   .     S
Er14     Ti56    10.0   .     S
Ti15     V57    10.0   1_655     S
V16     Ti72    10.0   1_554     S
V16     Ti87    10.0   1_554     S
V16     Ti89    10.0   1_554     S
V16     Ti54    10.0   1_554     S
V16     Ti19    10.0   1_554     S
V16     Ti8    10.0   1_554     S
V16     Ti33    10.0   1_554     S
V16     Ti24    10.0   1_554     S
V16     Ti20    10.0   1_554     S
V16     Ti115    10.0   1_554     S
V16     Ti18    10.0   1_554     S
V16     Ti21    10.0   1_554     S
V16     Ti85    10.0   .     S
V16     Ti86    10.0   .     S
V16     Ti83    10.0   .     S
V16     Ti114    10.0   .     S
V16     Ti123    10.0   .     S
V16     Ti124    10.0   .     S
V16     Ti17    10.0   .     S
V16     Ti84    10.0   .     S
V16     Ti88    10.0   .     S
V16     Ti90    10.0   .     S
Ti18     Er2    10.0   1_556     S
Ti18     V16    10.0   1_556     S
Ti19     Er7    10.0   1_556     S
Ti19     V16    10.0   1_556     S
Ti19     Er52    10.0   .     S
Ti20     V16    10.0   1_556     S
Ti20     Er22    10.0   1_556     S
Ti20     Er31    10.0   .     S
Ti21     Er2    10.0   1_556     S
Ti21     V16    10.0   1_556     S
Er22     Ti78    10.0   .     S
Er22     Ti97    10.0   .     S
Er22     Ti94    10.0   1_554     S
Er22     Ti23    10.0   1_554     S
Er22     Ti83    10.0   .     S
Er22     Ti86    10.0   .     S
Er22     Ti20    10.0   1_554     S
Er22     Ti24    10.0   1_554     S
Ti23     Er22    10.0   1_556     S
Ti23     V91    10.0   1_656     S
Ti24     V16    10.0   1_556     S
Ti24     Er22    10.0   1_556     S
Ti25     Er26    10.0   1_565     S
Ti25     V36    10.0   1_565     S
Er26     Ti25    10.0   1_545     S
Er26     Ti35    10.0   1_545     S
Er26     Ti74    10.0   .     S
Er26     Ti80    10.0   .     S
Er26     Ti95    10.0   .     S
Er26     Ti78    10.0   .     S
Er26     Ti27    10.0   1_545     S
Er26     Ti92    10.0   1_545     S
Ti27     Er26    10.0   1_565     S
Ti27     V91    10.0   1_665     S
Er28     Ti60    10.0   .     S
Er28     Ti30    10.0   .     S
Er28     Ti76    10.0   .     S
Er28     Ti66    10.0   .     S
Er28     Ti38    10.0   .     S
Er28     Ti29    10.0   .     S
Er28     Ti80    10.0   .     S
Er28     Ti79    10.0   .     S
Ti29     V36    10.0   .     S
Ti30     V57    10.0   1_655     S
Er31     Ti32    10.0   .     S
Er31     Ti38    10.0   .     S
Er31     Ti77    10.0   .     S
Er31     Ti73    10.0   .     S
Er31     Ti87    10.0   .     S
Er31     Ti72    10.0   .     S
Er31     Ti33    10.0   .     S
Ti32     V36    10.0   .     S
Ti33     V16    10.0   1_556     S
Ti34     Er3    10.0   1_565     S
Ti34     V36    10.0   1_565     S
Ti35     Er26    10.0   1_565     S
Ti35     V36    10.0   1_565     S
V36     Ti75    10.0   1_545     S
V36     Ti71    10.0   1_545     S
V36     Ti81    10.0   1_545     S
V36     Ti25    10.0   1_545     S
V36     Ti12    10.0   1_545     S
V36     Ti35    10.0   1_545     S
V36     Ti42    10.0   1_545     S
V36     Ti48    10.0   1_545     S
V36     Ti37    10.0   1_545     S
V36     Ti34    10.0   1_545     S
V36     Ti121    10.0   1_545     S
V36     Ti39    10.0   1_545     S
V36     Ti112    10.0   .     S
V36     Ti122    10.0   .     S
V36     Ti113    10.0   .     S
V36     Ti74    10.0   .     S
V36     Ti79    10.0   .     S
V36     Ti80    10.0   .     S
V36     Ti38    10.0   .     S
V36     Ti73    10.0   .     S
V36     Ti77    10.0   .     S
V36     Ti82    10.0   .     S
Ti37     V36    10.0   1_565     S
Ti37     Er40    10.0   1_565     S
Ti37     Er46    10.0   .     S
Ti39     Er3    10.0   1_565     S
Ti39     V36    10.0   1_565     S
Er40     Ti62    10.0   .     S
Er40     Ti99    10.0   .     S
Er40     Ti93    10.0   1_545     S
Er40     Ti41    10.0   1_545     S
Er40     Ti73    10.0   .     S
Er40     Ti82    10.0   .     S
Er40     Ti37    10.0   1_545     S
Er40     Ti42    10.0   1_545     S
Ti41     Er40    10.0   1_565     S
Ti41     V91    10.0   1_566     S
Ti41     Er117    10.0   .     S
Ti42     V36    10.0   1_565     S
Ti42     Er40    10.0   1_565     S
Ti43     Er44    10.0   1_655     S
Ti43     V57    10.0   1_655     S
Er44     Ti56    10.0   1_455     S
Er44     Ti43    10.0   1_455     S
Er44     Ti67    10.0   .     S
Er44     Ti64    10.0   .     S
Er44     Ti69    10.0   .     S
Er44     Ti96    10.0   .     S
Er44     Ti92    10.0   1_455     S
Er44     Ti45    10.0   1_455     S
Ti45     Er44    10.0   1_655     S
Ti45     V91    10.0   1_665     S
Er46     Ti81    10.0   .     S
Er46     Ti71    10.0   .     S
Er46     Ti48    10.0   .     S
Er46     Ti47    10.0   .     S
Er46     Ti58    10.0   .     S
Er46     Ti68    10.0   .     S
Er46     Ti67    10.0   .     S
Ti47     V57    10.0   .     S
Ti47     Er117    10.0   .     S
Ti48     V36    10.0   1_565     S
Er49     Ti98    10.0   .     S
Er49     Ti62    10.0   .     S
Er49     Ti51    10.0   1_455     S
Er49     Ti94    10.0   1_455     S
Er49     Ti50    10.0   1_455     S
Er49     Ti60    10.0   1_455     S
Er49     Ti65    10.0   .     S
Er49     Ti63    10.0   .     S
Ti50     Er49    10.0   1_655     S
Ti50     V57    10.0   1_655     S
Ti51     Er49    10.0   1_655     S
Ti51     V91    10.0   1_656     S
Er52     Ti58    10.0   .     S
Er52     Ti53    10.0   .     S
Er52     Ti63    10.0   .     S
Er52     Ti70    10.0   .     S
Er52     Ti54    10.0   .     S
Er52     Ti72    10.0   .     S
Er52     Ti89    10.0   .     S
Ti53     V57    10.0   .     S
Ti53     Er117    10.0   .     S
Ti54     V16    10.0   1_556     S
Ti55     V57    10.0   1_655     S
Ti55     Er117    10.0   1_655     S
Ti56     Er44    10.0   1_655     S
Ti56     V57    10.0   1_655     S
V57     Ti50    10.0   1_455     S
V57     Ti30    10.0   1_455     S
V57     Ti60    10.0   1_455     S
V57     Ti59    10.0   1_455     S
V57     Ti120    10.0   1_455     S
V57     Ti55    10.0   1_455     S
V57     Ti61    10.0   1_455     S
V57     Ti76    10.0   1_455     S
V57     Ti66    10.0   1_455     S
V57     Ti56    10.0   1_455     S
V57     Ti15    10.0   1_455     S
V57     Ti43    10.0   1_455     S
V57     Ti64    10.0   .     S
V57     Ti67    10.0   .     S
V57     Ti68    10.0   .     S
V57     Ti110    10.0   .     S
V57     Ti111    10.0   .     S
V57     Ti119    10.0   .     S
V57     Ti58    10.0   .     S
V57     Ti63    10.0   .     S
V57     Ti65    10.0   .     S
V57     Ti70    10.0   .     S
Ti59     V57    10.0   1_655     S
Ti59     Er117    10.0   1_655     S
Ti60     Er49    10.0   1_655     S
Ti60     V57    10.0   1_655     S
Ti61     V57    10.0   1_655     S
Ti61     Er101    10.0   1_655     S
Ti62     V91    10.0   1_556     S
Ti64     Er107    10.0   .     S
Ti65     Er108    10.0   .     S
Ti66     V57    10.0   1_655     S
Ti66     Er101    10.0   1_655     S
Ti68     Er107    10.0   .     S
Ti69     V91    10.0   1_565     S
Ti70     Er108    10.0   .     S
Ti71     V36    10.0   1_565     S
Ti72     V16    10.0   1_556     S
Ti74     Er109    10.0   .     S
Ti75     Er102    10.0   1_565     S
Ti75     V36    10.0   1_565     S
Ti76     V57    10.0   1_655     S
Ti77     Er108    10.0   .     S
Ti78     V91    10.0   1_655     S
Ti79     Er109    10.0   .     S
Ti81     Er102    10.0   1_565     S
Ti81     V36    10.0   1_565     S
Ti82     Er108    10.0   .     S
Ti84     Er107    10.0   .     S
Ti85     Er109    10.0   .     S
Ti86     Er109    10.0   .     S
Ti87     Er116    10.0   1_556     S
Ti87     V16    10.0   1_556     S
Ti89     Er116    10.0   1_556     S
Ti89     V16    10.0   1_556     S
Ti90     Er107    10.0   .     S
V91     Ti96    10.0   1_545     S
V91     Ti69    10.0   1_545     S
V91     Ti100    10.0   1_545     S
V91     Ti27    10.0   1_445     S
V91     Ti45    10.0   1_445     S
V91     Ti92    10.0   1_445     S
V91     Ti95    10.0   1_455     S
V91     Ti78    10.0   1_455     S
V91     Ti97    10.0   1_455     S
V91     Ti103    10.0   .     S
V91     Ti105    10.0   .     S
V91     Ti106    10.0   .     S
V91     Ti104    10.0   1_444     S
V91     Ti118    10.0   1_444     S
V91     Ti4    10.0   1_444     S
V91     Ti51    10.0   1_454     S
V91     Ti23    10.0   1_454     S
V91     Ti94    10.0   1_454     S
V91     Ti62    10.0   1_554     S
V91     Ti98    10.0   1_554     S
V91     Ti99    10.0   1_554     S
V91     Ti41    10.0   1_544     S
V91     Ti9    10.0   1_544     S
V91     Ti93    10.0   1_544     S
Ti92     Er26    10.0   1_565     S
Ti92     Er44    10.0   1_655     S
Ti92     V91    10.0   1_665     S
Ti93     Er7    10.0   1_556     S
Ti93     Er40    10.0   1_565     S
Ti93     V91    10.0   1_566     S
Ti94     Er22    10.0   1_556     S
Ti94     Er49    10.0   1_655     S
Ti94     V91    10.0   1_656     S
Ti95     Er101    10.0   1_655     S
Ti95     V91    10.0   1_655     S
Ti96     Er102    10.0   1_565     S
Ti96     V91    10.0   1_565     S
Ti97     Er101    10.0   1_655     S
Ti97     V91    10.0   1_655     S
Ti98     Er116    10.0   1_556     S
Ti98     V91    10.0   1_556     S
Ti99     Er116    10.0   1_556     S
Ti99     V91    10.0   1_556     S
Ti100     Er102    10.0   1_565     S
Ti100     V91    10.0   1_565     S
Er101     Ti110    10.0   .     S
Er101     Ti119    10.0   .     S
Er101     Ti66    10.0   1_455     S
Er101     Ti61    10.0   1_455     S
Er101     Ti97    10.0   1_455     S
Er101     Ti95    10.0   1_455     S
Er101     Ti103    10.0   .     S
Er101     Ti106    10.0   .     S
Er102     Ti75    10.0   1_545     S
Er102     Ti81    10.0   1_545     S
Er102     Ti122    10.0   .     S
Er102     Ti112    10.0   .     S
Er102     Ti96    10.0   1_545     S
Er102     Ti100    10.0   1_545     S
Er102     Ti105    10.0   .     S
Er102     Ti103    10.0   .     S
Ti104     Er3    10.0   1_565     S
Ti104     V91    10.0   1_666     S
Ti104     Er117    10.0   1_655     S
Ti105     Er116    10.0   .     S
Ti106     Er116    10.0   .     S
Er107     Ti123    10.0   .     S
Er107     Ti114    10.0   .     S
Er107     Ti111    10.0   .     S
Er107     Ti110    10.0   .     S
Er108     Ti113    10.0   .     S
Er108     Ti122    10.0   .     S
Er108     Ti119    10.0   .     S
Er108     Ti111    10.0   .     S
Er109     Ti114    10.0   .     S
Er109     Ti124    10.0   .     S
Er109     Ti112    10.0   .     S
Er109     Ti113    10.0   .     S
Ti115     V16    10.0   1_556     S
Er116     Ti89    10.0   1_554     S
Er116     Ti87    10.0   1_554     S
Er116     Ti124    10.0   .     S
Er116     Ti123    10.0   .     S
Er116     Ti99    10.0   1_554     S
Er116     Ti98    10.0   1_554     S
Er117     Ti59    10.0   1_455     S
Er117     Ti55    10.0   1_455     S
Er117     Ti118    10.0   1_455     S
Er117     Ti104    10.0   1_455     S
Ti118     Er2    10.0   1_556     S
Ti118     V91    10.0   1_666     S
Ti118     Er117    10.0   1_655     S
Ti120     V57    10.0   1_655     S
Ti121     V36    10.0   1_565     S
