data_uroa
_audit_creation_date              2020-02-04
_audit_creation_method            'Pymatgen'
_symmetry_space_group_name_H-M    'P1'
_symmetry_Int_Tables_number       1
loop_
_symmetry_equiv_pos_as_xyz
  x,y,z
_cell_length_a                    107.2808
_cell_length_b                    107.2808
_cell_length_c                    107.2808
_cell_angle_alpha                 90.0
_cell_angle_beta                 90.0
_cell_angle_gamma                 90.0
loop_
_atom_site_label
_atom_site_type_symbol
_atom_site_fract_x
_atom_site_fract_y
_atom_site_fract_z
V1     V     0.75   0.8159   0.6841
V2     V     0.6841   0.8159   0.75
V3     V     0.6841   0.75   0.8159
V4     V     0.75   0.6841   0.8159
V5     V     0.8159   0.6841   0.75
V6     V     0.8159   0.75   0.6841
V7     V     0.8159   0.3159   0.75
V8     V     0.75   0.3159   0.8159
V9     V     0.75   0.1841   0.6841
V10     V     0.6841   0.1841   0.75
V11     V     0.8159   0.25   0.6841
V12     V     0.6841   0.25   0.8159
V13     V     0.3159   0.8159   0.75
V14     V     0.3159   0.75   0.8159
V15     V     0.1841   0.6841   0.75
V16     V     0.1841   0.75   0.6841
V17     V     0.25   0.6841   0.8159
V18     V     0.25   0.8159   0.6841
V19     V     0.6841   0.75   0.1841
V20     V     0.75   0.6841   0.1841
V21     V     0.8159   0.75   0.3159
V22     V     0.75   0.8159   0.3159
V23     V     0.6841   0.8159   0.25
V24     V     0.8159   0.6841   0.25
V25     V     0.1841   0.75   0.3159
V26     V     0.25   0.6841   0.1841
V27     V     0.1841   0.6841   0.25
V28     V     0.3159   0.75   0.1841
V29     V     0.3159   0.8159   0.25
V30     V     0.25   0.8159   0.3159
V31     V     0.3159   0.1841   0.75
V32     V     0.1841   0.3159   0.75
V33     V     0.1841   0.25   0.6841
V34     V     0.25   0.1841   0.6841
V35     V     0.25   0.3159   0.8159
V36     V     0.3159   0.25   0.8159
V37     V     0.75   0.3159   0.1841
V38     V     0.6841   0.1841   0.25
V39     V     0.6841   0.25   0.1841
V40     V     0.75   0.1841   0.3159
V41     V     0.8159   0.25   0.3159
V42     V     0.8159   0.3159   0.25
V43     V     0.3159   0.1841   0.25
V44     V     0.3159   0.25   0.1841
V45     V     0.1841   0.3159   0.25
V46     V     0.25   0.3159   0.1841
V47     V     0.1841   0.25   0.3159
V48     V     0.25   0.1841   0.3159
Er49     Er     0.3818   0.25   0.1182
Er50     Er     0.1182   0.3818   0.25
Er51     Er     0.25   0.1182   0.3818
Er52     Er     0.25   0.3818   0.1182
Er53     Er     0.3818   0.1182   0.25
Er54     Er     0.1182   0.25   0.3818
Er55     Er     0.75   0.3818   0.1182
Er56     Er     0.3818   0.1182   0.75
Er57     Er     0.1182   0.75   0.3818
Er58     Er     0.3818   0.75   0.1182
Er59     Er     0.1182   0.3818   0.75
Er60     Er     0.75   0.1182   0.3818
Er61     Er     0.25   0.3818   0.8818
Er62     Er     0.3818   0.8818   0.25
Er63     Er     0.8818   0.25   0.3818
Er64     Er     0.3818   0.25   0.8818
Er65     Er     0.8818   0.3818   0.25
Er66     Er     0.25   0.8818   0.3818
Er67     Er     0.25   0.6182   0.1182
Er68     Er     0.6182   0.1182   0.25
Er69     Er     0.1182   0.25   0.6182
Er70     Er     0.6182   0.25   0.1182
Er71     Er     0.1182   0.6182   0.25
Er72     Er     0.25   0.1182   0.6182
Er73     Er     0.8818   0.3818   0.75
Er74     Er     0.3818   0.8818   0.75
Er75     Er     0.3818   0.75   0.8818
Er76     Er     0.6182   0.75   0.1182
Er77     Er     0.1182   0.6182   0.75
Er78     Er     0.75   0.8818   0.3818
Er79     Er     0.75   0.1182   0.6182
Er80     Er     0.75   0.6182   0.1182
Er81     Er     0.75   0.3818   0.8818
Er82     Er     0.6182   0.1182   0.75
Er83     Er     0.1182   0.75   0.6182
Er84     Er     0.8818   0.75   0.3818
Er85     Er     0.6182   0.25   0.8818
Er86     Er     0.8818   0.6182   0.25
Er87     Er     0.25   0.8818   0.6182
Er88     Er     0.25   0.6182   0.8818
Er89     Er     0.6182   0.8818   0.25
Er90     Er     0.8818   0.25   0.6182
Er91     Er     0.75   0.6182   0.8818
Er92     Er     0.8818   0.75   0.6182
Er93     Er     0.6182   0.75   0.8818
Er94     Er     0.75   0.8818   0.6182
Er95     Er     0.6182   0.8818   0.75
Er96     Er     0.8818   0.6182   0.75
Ti97     Ti     0.7034   0.9376   0.4402
Ti98     Ti     0.7966   0.9402   0.4376
Ti99     Ti     0.9376   0.4402   0.7034
Ti100     Ti     0.9402   0.4376   0.7966
Ti101     Ti     0.4402   0.7034   0.9376
Ti102     Ti     0.4376   0.7966   0.9402
Ti103     Ti     0.9376   0.7034   0.4402
Ti104     Ti     0.9402   0.7966   0.4376
Ti105     Ti     0.4402   0.9376   0.7034
Ti106     Ti     0.4376   0.9402   0.7966
Ti107     Ti     0.7034   0.4402   0.9376
Ti108     Ti     0.7966   0.4376   0.9402
Ti109     Ti     0.7034   0.4402   0.0624
Ti110     Ti     0.7966   0.4376   0.0598
Ti111     Ti     0.4402   0.0624   0.7034
Ti112     Ti     0.4376   0.0598   0.7966
Ti113     Ti     0.0624   0.7034   0.4402
Ti114     Ti     0.0598   0.7966   0.4376
Ti115     Ti     0.4402   0.7034   0.0624
Ti116     Ti     0.4376   0.7966   0.0598
Ti117     Ti     0.0624   0.4402   0.7034
Ti118     Ti     0.0598   0.4376   0.7966
Ti119     Ti     0.7034   0.0624   0.4402
Ti120     Ti     0.7966   0.0598   0.4376
Ti121     Ti     0.7034   0.5598   0.9376
Ti122     Ti     0.7966   0.5624   0.9402
Ti123     Ti     0.0624   0.5598   0.7034
Ti124     Ti     0.0598   0.5624   0.7966
Ti125     Ti     0.5598   0.9376   0.7034
Ti126     Ti     0.5624   0.9402   0.7966
Ti127     Ti     0.9376   0.7034   0.5598
Ti128     Ti     0.9402   0.7966   0.5624
Ti129     Ti     0.5598   0.7034   0.9376
Ti130     Ti     0.5624   0.7966   0.9402
Ti131     Ti     0.9376   0.5598   0.7034
Ti132     Ti     0.9402   0.5624   0.7966
Ti133     Ti     0.5598   0.0624   0.7034
Ti134     Ti     0.5624   0.0598   0.7966
Ti135     Ti     0.7034   0.9376   0.5598
Ti136     Ti     0.7966   0.9402   0.5624
Ti137     Ti     0.5598   0.7034   0.0624
Ti138     Ti     0.5624   0.7966   0.0598
Ti139     Ti     0.7034   0.0624   0.5598
Ti140     Ti     0.7966   0.0598   0.5624
Ti141     Ti     0.7034   0.5598   0.0624
Ti142     Ti     0.7966   0.5624   0.0598
Ti143     Ti     0.0624   0.7034   0.5598
Ti144     Ti     0.0598   0.7966   0.5624
Ti145     Ti     0.2034   0.0598   0.4376
Ti146     Ti     0.2966   0.0624   0.4402
Ti147     Ti     0.4402   0.9376   0.2966
Ti148     Ti     0.4376   0.9402   0.2034
Ti149     Ti     0.2966   0.9376   0.4402
Ti150     Ti     0.2034   0.9402   0.4376
Ti151     Ti     0.4376   0.0598   0.2034
Ti152     Ti     0.4402   0.0624   0.2966
Ti153     Ti     0.2966   0.9376   0.5598
Ti154     Ti     0.2034   0.9402   0.5624
Ti155     Ti     0.5598   0.0624   0.2966
Ti156     Ti     0.5624   0.0598   0.2034
Ti157     Ti     0.2966   0.0624   0.5598
Ti158     Ti     0.2034   0.0598   0.5624
Ti159     Ti     0.5598   0.9376   0.2966
Ti160     Ti     0.5624   0.9402   0.2034
Ce161     Ce     0.4534   0.9534   0.3875
Ce162     Ce     0.3875   0.9534   0.4534
Ce163     Ce     0.4534   0.0466   0.3875
Ce164     Ce     0.3875   0.0466   0.4534
Ce165     Ce     0.5466   0.9534   0.3875
Ce166     Ce     0.6125   0.9534   0.4534
Ce167     Ce     0.5466   0.0466   0.3875
Ce168     Ce     0.6125   0.0466   0.4534
Ce169     Ce     0.3875   0.0466   0.5466
Ce170     Ce     0.4534   0.0466   0.6125
Ce171     Ce     0.3875   0.9534   0.5466
Ce172     Ce     0.4534   0.9534   0.6125
Ce173     Ce     0.5466   0.0466   0.6125
Ce174     Ce     0.6125   0.0466   0.5466
Ce175     Ce     0.5466   0.9534   0.6125
Ce176     Ce     0.6125   0.9534   0.5466
Ce177     Ce     0.8875   0.0466   0.5466
Ce178     Ce     0.9534   0.1125   0.5466
Ce179     Ce     0.9534   0.8875   0.5466
Ce180     Ce     0.8875   0.9534   0.5466
Ce181     Ce     0.0466   0.1125   0.5466
Ce182     Ce     0.1125   0.0466   0.5466
Ce183     Ce     0.0466   0.8875   0.5466
Ce184     Ce     0.1125   0.9534   0.5466
Ce185     Ce     0.0466   0.8875   0.4534
Ce186     Ce     0.1125   0.9534   0.4534
Ce187     Ce     0.8875   0.9534   0.4534
Ce188     Ce     0.9534   0.8875   0.4534
Ce189     Ce     0.0466   0.1125   0.4534
Ce190     Ce     0.1125   0.0466   0.4534
Ce191     Ce     0.8875   0.0466   0.4534
Ce192     Ce     0.9534   0.1125   0.4534
Ti193     Ti     0.9376   0.2966   0.4402
Ti194     Ti     0.9402   0.2034   0.4376
Ti195     Ti     0.0598   0.4376   0.2034
Ti196     Ti     0.0624   0.4402   0.2966
Ti197     Ti     0.9376   0.4402   0.2966
Ti198     Ti     0.9402   0.4376   0.2034
Ti199     Ti     0.0624   0.2966   0.4402
Ti200     Ti     0.0598   0.2034   0.4376
Ti201     Ti     0.0624   0.2966   0.5598
Ti202     Ti     0.0598   0.2034   0.5624
Ti203     Ti     0.9376   0.2966   0.5598
Ti204     Ti     0.9402   0.2034   0.5624
Ti205     Ti     0.0624   0.5598   0.2966
Ti206     Ti     0.0598   0.5624   0.2034
Ti207     Ti     0.9376   0.5598   0.2966
Ti208     Ti     0.9402   0.5624   0.2034
Ce209     Ce     0.0466   0.6125   0.5466
Ce210     Ce     0.0466   0.5466   0.6125
Ce211     Ce     0.9534   0.5466   0.6125
Ce212     Ce     0.9534   0.6125   0.5466
Ce213     Ce     0.9534   0.3875   0.5466
Ce214     Ce     0.9534   0.4534   0.6125
Ce215     Ce     0.0466   0.3875   0.5466
Ce216     Ce     0.0466   0.4534   0.6125
Ce217     Ce     0.0466   0.3875   0.4534
Ce218     Ce     0.0466   0.4534   0.3875
Ce219     Ce     0.9534   0.4534   0.3875
Ce220     Ce     0.9534   0.3875   0.4534
Ce221     Ce     0.0466   0.5466   0.3875
Ce222     Ce     0.0466   0.6125   0.4534
Ce223     Ce     0.9534   0.5466   0.3875
Ce224     Ce     0.9534   0.6125   0.4534
Ce225     Ce     0.9534   0.5466   0.8875
Ce226     Ce     0.8875   0.5466   0.9534
Ce227     Ce     0.0466   0.5466   0.8875
Ce228     Ce     0.1125   0.5466   0.9534
Ce229     Ce     0.1125   0.5466   0.0466
Ce230     Ce     0.0466   0.5466   0.1125
Ce231     Ce     0.8875   0.5466   0.0466
Ce232     Ce     0.9534   0.5466   0.1125
Ce233     Ce     0.9534   0.4534   0.8875
Ce234     Ce     0.8875   0.4534   0.9534
Ce235     Ce     0.0466   0.4534   0.8875
Ce236     Ce     0.1125   0.4534   0.9534
Ce237     Ce     0.8875   0.4534   0.0466
Ce238     Ce     0.9534   0.4534   0.1125
Ce239     Ce     0.0466   0.4534   0.1125
Ce240     Ce     0.1125   0.4534   0.0466
Ce241     Ce     0.5466   0.0466   0.8875
Ce242     Ce     0.5466   0.1125   0.9534
Ce243     Ce     0.5466   0.8875   0.9534
Ce244     Ce     0.5466   0.9534   0.8875
Ce245     Ce     0.5466   0.0466   0.1125
Ce246     Ce     0.5466   0.1125   0.0466
Ce247     Ce     0.5466   0.8875   0.0466
Ce248     Ce     0.5466   0.9534   0.1125
Ce249     Ce     0.4534   0.9534   0.8875
Ce250     Ce     0.4534   0.8875   0.9534
Ce251     Ce     0.4534   0.0466   0.8875
Ce252     Ce     0.4534   0.1125   0.9534
Ce253     Ce     0.4534   0.0466   0.1125
Ce254     Ce     0.4534   0.1125   0.0466
Ce255     Ce     0.4534   0.8875   0.0466
Ce256     Ce     0.4534   0.9534   0.1125
Ti257     Ti     0.2966   0.4402   0.9376
Ti258     Ti     0.2034   0.4376   0.9402
Ti259     Ti     0.4376   0.2034   0.0598
Ti260     Ti     0.4402   0.2966   0.0624
Ti261     Ti     0.2034   0.4376   0.0598
Ti262     Ti     0.2966   0.4402   0.0624
Ti263     Ti     0.4402   0.2966   0.9376
Ti264     Ti     0.4376   0.2034   0.9402
Ti265     Ti     0.5598   0.2966   0.9376
Ti266     Ti     0.5624   0.2034   0.9402
Ti267     Ti     0.2966   0.5598   0.0624
Ti268     Ti     0.2034   0.5624   0.0598
Ti269     Ti     0.2966   0.5598   0.9376
Ti270     Ti     0.2034   0.5624   0.9402
Ti271     Ti     0.5598   0.2966   0.0624
Ti272     Ti     0.5624   0.2034   0.0598
Ce273     Ce     0.3875   0.4534   0.9534
Ce274     Ce     0.4534   0.3875   0.9534
Ce275     Ce     0.3875   0.4534   0.0466
Ce276     Ce     0.4534   0.3875   0.0466
Ce277     Ce     0.3875   0.5466   0.9534
Ce278     Ce     0.4534   0.6125   0.9534
Ce279     Ce     0.3875   0.5466   0.0466
Ce280     Ce     0.4534   0.6125   0.0466
Ce281     Ce     0.5466   0.3875   0.0466
Ce282     Ce     0.6125   0.4534   0.0466
Ce283     Ce     0.5466   0.3875   0.9534
Ce284     Ce     0.6125   0.4534   0.9534
Ce285     Ce     0.6125   0.5466   0.0466
Ce286     Ce     0.5466   0.6125   0.0466
Ce287     Ce     0.5466   0.6125   0.9534
Ce288     Ce     0.6125   0.5466   0.9534
loop_
_geom_bond_atom_site_label_1
_geom_bond_atom_site_label_2
_geom_bond_distance
_geom_bond_site_symmetry_2
_ccdc_geom_bond_type
V1     V2    10.0   .     S
V1     V6    10.0   .     S
V1     Er94    10.0   .     S
V2     V3    10.0   .     S
V2     Er95    10.0   .     S
V3     V4    10.0   .     S
V3     Er93    10.0   .     S
V4     V5    10.0   .     S
V4     Er91    10.0   .     S
V5     V6    10.0   .     S
V5     Er96    10.0   .     S
V6     Er92    10.0   .     S
V7     V11    10.0   .     S
V7     V8    10.0   .     S
V7     Er73    10.0   .     S
V8     V12    10.0   .     S
V8     Er81    10.0   .     S
V9     V11    10.0   .     S
V9     V10    10.0   .     S
V9     Er79    10.0   .     S
V10     V12    10.0   .     S
V10     Er82    10.0   .     S
V11     Er90    10.0   .     S
V12     Er85    10.0   .     S
V13     V18    10.0   .     S
V13     V14    10.0   .     S
V13     Er74    10.0   .     S
V14     V17    10.0   .     S
V14     Er75    10.0   .     S
V15     V17    10.0   .     S
V15     V16    10.0   .     S
V15     Er77    10.0   .     S
V16     V18    10.0   .     S
V16     Er83    10.0   .     S
V17     Er88    10.0   .     S
V18     Er87    10.0   .     S
V19     V23    10.0   .     S
V19     V20    10.0   .     S
V19     Er76    10.0   .     S
V20     V24    10.0   .     S
V20     Er80    10.0   .     S
V21     V24    10.0   .     S
V21     V22    10.0   .     S
V21     Er84    10.0   .     S
V22     V23    10.0   .     S
V22     Er78    10.0   .     S
V23     Er89    10.0   .     S
V24     Er86    10.0   .     S
V25     V30    10.0   .     S
V25     V27    10.0   .     S
V25     Er57    10.0   .     S
V26     V27    10.0   .     S
V26     V28    10.0   .     S
V26     Er67    10.0   .     S
V27     Er71    10.0   .     S
V28     V29    10.0   .     S
V28     Er58    10.0   .     S
V29     V30    10.0   .     S
V29     Er62    10.0   .     S
V30     Er66    10.0   .     S
V31     V36    10.0   .     S
V31     V34    10.0   .     S
V31     Er56    10.0   .     S
V32     V35    10.0   .     S
V32     V33    10.0   .     S
V32     Er59    10.0   .     S
V33     V34    10.0   .     S
V33     Er69    10.0   .     S
V34     Er72    10.0   .     S
V35     V36    10.0   .     S
V35     Er61    10.0   .     S
V36     Er64    10.0   .     S
V37     V42    10.0   .     S
V37     V39    10.0   .     S
V37     Er55    10.0   .     S
V38     V39    10.0   .     S
V38     V40    10.0   .     S
V38     Er68    10.0   .     S
V39     Er70    10.0   .     S
V40     V41    10.0   .     S
V40     Er60    10.0   .     S
V41     V42    10.0   .     S
V41     Er63    10.0   .     S
V42     Er65    10.0   .     S
V43     V44    10.0   .     S
V43     V48    10.0   .     S
V43     Er53    10.0   .     S
V44     V46    10.0   .     S
V44     Er49    10.0   .     S
V45     V46    10.0   .     S
V45     V47    10.0   .     S
V45     Er50    10.0   .     S
V46     Er52    10.0   .     S
V47     V48    10.0   .     S
V47     Er54    10.0   .     S
V48     Er51    10.0   .     S
Er49     Ti260    10.0   .     S
Er49     Ti259    10.0   .     S
Er50     Ti196    10.0   .     S
Er50     Ti195    10.0   .     S
Er51     Ti146    10.0   .     S
Er51     Ti145    10.0   .     S
Er52     Ti262    10.0   .     S
Er52     Ti261    10.0   .     S
Er53     Ti152    10.0   .     S
Er53     Ti151    10.0   .     S
Er54     Ti199    10.0   .     S
Er54     Ti200    10.0   .     S
Er55     Ti109    10.0   .     S
Er55     Ti110    10.0   .     S
Er56     Ti111    10.0   .     S
Er56     Ti112    10.0   .     S
Er57     Ti113    10.0   .     S
Er57     Ti114    10.0   .     S
Er58     Ti115    10.0   .     S
Er58     Ti116    10.0   .     S
Er59     Ti117    10.0   .     S
Er59     Ti118    10.0   .     S
Er60     Ti119    10.0   .     S
Er60     Ti120    10.0   .     S
Er61     Ti258    10.0   .     S
Er61     Ti257    10.0   .     S
Er62     Ti148    10.0   .     S
Er62     Ti147    10.0   .     S
Er63     Ti194    10.0   .     S
Er63     Ti193    10.0   .     S
Er64     Ti264    10.0   .     S
Er64     Ti263    10.0   .     S
Er65     Ti198    10.0   .     S
Er65     Ti197    10.0   .     S
Er66     Ti150    10.0   .     S
Er66     Ti149    10.0   .     S
Er67     Ti268    10.0   .     S
Er67     Ti267    10.0   .     S
Er68     Ti156    10.0   .     S
Er68     Ti155    10.0   .     S
Er69     Ti202    10.0   .     S
Er69     Ti201    10.0   .     S
Er70     Ti272    10.0   .     S
Er70     Ti271    10.0   .     S
Er71     Ti206    10.0   .     S
Er71     Ti205    10.0   .     S
Er72     Ti158    10.0   .     S
Er72     Ti157    10.0   .     S
Er73     Ti100    10.0   .     S
Er73     Ti99    10.0   .     S
Er74     Ti106    10.0   .     S
Er74     Ti105    10.0   .     S
Er75     Ti102    10.0   .     S
Er75     Ti101    10.0   .     S
Er76     Ti138    10.0   .     S
Er76     Ti137    10.0   .     S
Er77     Ti124    10.0   .     S
Er77     Ti123    10.0   .     S
Er78     Ti98    10.0   .     S
Er78     Ti97    10.0   .     S
Er79     Ti140    10.0   .     S
Er79     Ti139    10.0   .     S
Er80     Ti142    10.0   .     S
Er80     Ti141    10.0   .     S
Er81     Ti108    10.0   .     S
Er81     Ti107    10.0   .     S
Er82     Ti134    10.0   .     S
Er82     Ti133    10.0   .     S
Er83     Ti144    10.0   .     S
Er83     Ti143    10.0   .     S
Er84     Ti104    10.0   .     S
Er84     Ti103    10.0   .     S
Er85     Ti266    10.0   .     S
Er85     Ti265    10.0   .     S
Er86     Ti208    10.0   .     S
Er86     Ti207    10.0   .     S
Er87     Ti154    10.0   .     S
Er87     Ti153    10.0   .     S
Er88     Ti270    10.0   .     S
Er88     Ti269    10.0   .     S
Er89     Ti160    10.0   .     S
Er89     Ti159    10.0   .     S
Er90     Ti204    10.0   .     S
Er90     Ti203    10.0   .     S
Er91     Ti122    10.0   .     S
Er91     Ti121    10.0   .     S
Er92     Ti128    10.0   .     S
Er92     Ti127    10.0   .     S
Er93     Ti130    10.0   .     S
Er93     Ti129    10.0   .     S
Er94     Ti136    10.0   .     S
Er94     Ti135    10.0   .     S
Er95     Ti126    10.0   .     S
Er95     Ti125    10.0   .     S
Er96     Ti132    10.0   .     S
Er96     Ti131    10.0   .     S
Ti97     Ce166    10.0   .     S
Ti97     Ti98    10.001   .     S
Ti98     Ce187    10.0   .     S
Ti99     Ce214    10.0   .     S
Ti99     Ti100    10.001   .     S
Ti100     Ce233    10.0   .     S
Ti101     Ce278    10.0   .     S
Ti101     Ti102    10.001   .     S
Ti102     Ce250    10.0   .     S
Ti103     Ce224    10.0   .     S
Ti103     Ti104    10.001   .     S
Ti104     Ce188    10.0   .     S
Ti105     Ce172    10.0   .     S
Ti105     Ti106    10.001   .     S
Ti106     Ce249    10.0   .     S
Ti107     Ce284    10.0   .     S
Ti107     Ti108    10.001   .     S
Ti108     Ce234    10.0   .     S
Ti109     Ce282    10.0   .     S
Ti109     Ti110    10.001   .     S
Ti110     Ce237    10.0   .     S
Ti111     Ce170    10.0   .     S
Ti111     Ti112    10.001   .     S
Ti112     Ce251    10.0   .     S
Ti113     Ce222    10.0   .     S
Ti113     Ti114    10.001   .     S
Ti114     Ce185    10.0   .     S
Ti115     Ce280    10.0   .     S
Ti115     Ti116    10.001   .     S
Ti116     Ce255    10.0   .     S
Ti117     Ce216    10.0   .     S
Ti117     Ti118    10.001   .     S
Ti118     Ce235    10.0   .     S
Ti119     Ce168    10.0   .     S
Ti119     Ti120    10.001   .     S
Ti120     Ce191    10.0   .     S
Ti121     Ce288    10.0   .     S
Ti121     Ti122    10.001   .     S
Ti122     Ce226    10.0   .     S
Ti123     Ce210    10.0   .     S
Ti123     Ti124    10.001   .     S
Ti124     Ce227    10.0   .     S
Ti125     Ce175    10.0   .     S
Ti125     Ti126    10.001   .     S
Ti126     Ce244    10.0   .     S
Ti127     Ce212    10.0   .     S
Ti127     Ti128    10.001   .     S
Ti128     Ce179    10.0   .     S
Ti129     Ce287    10.0   .     S
Ti129     Ti130    10.001   .     S
Ti130     Ce243    10.0   .     S
Ti131     Ce211    10.0   .     S
Ti131     Ti132    10.001   .     S
Ti132     Ce225    10.0   .     S
Ti133     Ce173    10.0   .     S
Ti133     Ti134    10.001   .     S
Ti134     Ce241    10.0   .     S
Ti135     Ce176    10.0   .     S
Ti135     Ti136    10.001   .     S
Ti136     Ce180    10.0   .     S
Ti137     Ce286    10.0   .     S
Ti137     Ti138    10.001   .     S
Ti138     Ce247    10.0   .     S
Ti139     Ce174    10.0   .     S
Ti139     Ti140    10.001   .     S
Ti140     Ce177    10.0   .     S
Ti141     Ce285    10.0   .     S
Ti141     Ti142    10.001   .     S
Ti142     Ce231    10.0   .     S
Ti143     Ce209    10.0   .     S
Ti143     Ti144    10.001   .     S
Ti144     Ce183    10.0   .     S
Ti145     Ce190    10.0   .     S
Ti145     Ti146    10.001   .     S
Ti146     Ce164    10.0   .     S
Ti147     Ce161    10.0   .     S
Ti147     Ti148    10.001   .     S
Ti148     Ce256    10.0   .     S
Ti149     Ce162    10.0   .     S
Ti149     Ti150    10.001   .     S
Ti150     Ce186    10.0   .     S
Ti151     Ce253    10.0   .     S
Ti151     Ti152    10.001   .     S
Ti152     Ce163    10.0   .     S
Ti153     Ce171    10.0   .     S
Ti153     Ti154    10.001   .     S
Ti154     Ce184    10.0   .     S
Ti155     Ce167    10.0   .     S
Ti155     Ti156    10.001   .     S
Ti156     Ce245    10.0   .     S
Ti157     Ce169    10.0   .     S
Ti157     Ti158    10.001   .     S
Ti158     Ce182    10.0   .     S
Ti159     Ce165    10.0   .     S
Ti159     Ti160    10.001   .     S
Ti160     Ce248    10.0   .     S
Ce161     Ce162    10.0   .     S
Ce161     Ce165    10.001   .     S
Ce161     Ce163    10.001   1_565     S
Ce162     Ce171    10.001   .     S
Ce162     Ce164    10.001   1_565     S
Ce163     Ce161    10.001   1_545     S
Ce163     Ce164    10.0   .     S
Ce163     Ce167    10.001   .     S
Ce164     Ce162    10.001   1_545     S
Ce164     Ce169    10.001   .     S
Ce165     Ce166    10.0   .     S
Ce165     Ce167    10.001   1_565     S
Ce166     Ce176    10.001   .     S
Ce166     Ce168    10.001   1_565     S
Ce167     Ce165    10.001   1_545     S
Ce167     Ce168    10.0   .     S
Ce168     Ce166    10.001   1_545     S
Ce168     Ce174    10.001   .     S
Ce169     Ce170    10.0   .     S
Ce169     Ce171    10.001   1_545     S
Ce170     Ce173    10.001   .     S
Ce170     Ce172    10.001   1_545     S
Ce171     Ce172    10.0   .     S
Ce171     Ce169    10.001   1_565     S
Ce172     Ce170    10.001   1_565     S
Ce172     Ce175    10.001   .     S
Ce173     Ce174    10.0   .     S
Ce173     Ce175    10.001   1_545     S
Ce174     Ce176    10.001   1_545     S
Ce175     Ce176    10.0   .     S
Ce175     Ce173    10.001   1_565     S
Ce176     Ce174    10.001   1_565     S
Ce177     Ce178    10.0   .     S
Ce177     Ce180    10.001   1_545     S
Ce177     Ce191    10.001   .     S
Ce178     Ce181    10.001   1_655     S
Ce178     Ce192    10.001   .     S
Ce178     Ti204    10.0   .     S
Ce179     Ce180    10.0   .     S
Ce179     Ce183    10.001   1_655     S
Ce179     Ce188    10.001   .     S
Ce180     Ce177    10.001   1_565     S
Ce180     Ce187    10.001   .     S
Ce181     Ce178    10.001   1_455     S
Ce181     Ce182    10.0   .     S
Ce181     Ce189    10.001   .     S
Ce181     Ti202    10.0   .     S
Ce182     Ce184    10.001   1_545     S
Ce182     Ce190    10.001   .     S
Ce183     Ce179    10.001   1_455     S
Ce183     Ce184    10.0   .     S
Ce183     Ce185    10.001   .     S
Ce184     Ce182    10.001   1_565     S
Ce184     Ce186    10.001   .     S
Ce185     Ce186    10.0   .     S
Ce185     Ce188    10.001   1_455     S
Ce186     Ce190    10.001   1_565     S
Ce187     Ce188    10.0   .     S
Ce187     Ce191    10.001   1_565     S
Ce188     Ce185    10.001   1_655     S
Ce189     Ce190    10.0   .     S
Ce189     Ce192    10.001   1_455     S
Ce189     Ti200    10.0   .     S
Ce190     Ce186    10.001   1_545     S
Ce191     Ce187    10.001   1_545     S
Ce191     Ce192    10.0   .     S
Ce192     Ce189    10.001   1_655     S
Ce192     Ti194    10.0   .     S
Ti193     Ce220    10.0   .     S
Ti193     Ti194    10.001   .     S
Ti195     Ce239    10.0   .     S
Ti195     Ti196    10.001   .     S
Ti196     Ce218    10.0   .     S
Ti197     Ce219    10.0   .     S
Ti197     Ti198    10.001   .     S
Ti198     Ce238    10.0   .     S
Ti199     Ce217    10.0   .     S
Ti199     Ti200    10.001   .     S
Ti201     Ce215    10.0   .     S
Ti201     Ti202    10.001   .     S
Ti203     Ce213    10.0   .     S
Ti203     Ti204    10.001   .     S
Ti205     Ce221    10.0   .     S
Ti205     Ti206    10.001   .     S
Ti206     Ce230    10.0   .     S
Ti207     Ce223    10.0   .     S
Ti207     Ti208    10.001   .     S
Ti208     Ce232    10.0   .     S
Ce209     Ce210    10.0   .     S
Ce209     Ce212    10.001   1_455     S
Ce209     Ce222    10.001   .     S
Ce210     Ce211    10.001   1_455     S
Ce210     Ce216    10.001   .     S
Ce211     Ce212    10.0   .     S
Ce211     Ce210    10.001   1_655     S
Ce211     Ce214    10.001   .     S
Ce212     Ce209    10.001   1_655     S
Ce212     Ce224    10.001   .     S
Ce213     Ce214    10.0   .     S
Ce213     Ce215    10.001   1_655     S
Ce213     Ce220    10.001   .     S
Ce214     Ce216    10.001   1_655     S
Ce215     Ce213    10.001   1_455     S
Ce215     Ce216    10.0   .     S
Ce215     Ce217    10.001   .     S
Ce216     Ce214    10.001   1_455     S
Ce217     Ce218    10.0   .     S
Ce217     Ce220    10.001   1_455     S
Ce218     Ce221    10.001   .     S
Ce218     Ce219    10.001   1_455     S
Ce219     Ce220    10.0   .     S
Ce219     Ce218    10.001   1_655     S
Ce219     Ce223    10.001   .     S
Ce220     Ce217    10.001   1_655     S
Ce221     Ce222    10.0   .     S
Ce221     Ce223    10.001   1_455     S
Ce222     Ce224    10.001   1_455     S
Ce223     Ce224    10.0   .     S
Ce223     Ce221    10.001   1_655     S
Ce224     Ce222    10.001   1_655     S
Ce225     Ce226    10.0   .     S
Ce225     Ce227    10.001   1_655     S
Ce225     Ce233    10.001   .     S
Ce226     Ce231    10.001   1_556     S
Ce226     Ce234    10.001   .     S
Ce227     Ce225    10.001   1_455     S
Ce227     Ce228    10.0   .     S
Ce227     Ce235    10.001   .     S
Ce228     Ce229    10.001   1_556     S
Ce228     Ce236    10.001   .     S
Ce228     Ti270    10.0   .     S
Ce229     Ce228    10.001   1_554     S
Ce229     Ce230    10.0   .     S
Ce229     Ce240    10.001   .     S
Ce229     Ti268    10.0   .     S
Ce230     Ce232    10.001   1_455     S
Ce230     Ce239    10.001   .     S
Ce231     Ce226    10.001   1_554     S
Ce231     Ce232    10.0   .     S
Ce231     Ce237    10.001   .     S
Ce232     Ce230    10.001   1_655     S
Ce232     Ce238    10.001   .     S
Ce233     Ce234    10.0   .     S
Ce233     Ce235    10.001   1_655     S
Ce234     Ce237    10.001   1_556     S
Ce235     Ce233    10.001   1_455     S
Ce235     Ce236    10.0   .     S
Ce236     Ce240    10.001   1_556     S
Ce236     Ti258    10.0   .     S
Ce237     Ce234    10.001   1_554     S
Ce237     Ce238    10.0   .     S
Ce238     Ce239    10.001   1_655     S
Ce239     Ce238    10.001   1_455     S
Ce239     Ce240    10.0   .     S
Ce240     Ce236    10.001   1_554     S
Ce240     Ti261    10.0   .     S
Ce241     Ce242    10.0   .     S
Ce241     Ce244    10.001   1_545     S
Ce241     Ce251    10.001   .     S
Ce242     Ce246    10.001   1_556     S
Ce242     Ce252    10.001   .     S
Ce242     Ti266    10.0   .     S
Ce243     Ce244    10.0   .     S
Ce243     Ce247    10.001   1_556     S
Ce243     Ce250    10.001   .     S
Ce244     Ce241    10.001   1_565     S
Ce244     Ce249    10.001   .     S
Ce245     Ce246    10.0   .     S
Ce245     Ce248    10.001   1_545     S
Ce245     Ce253    10.001   .     S
Ce246     Ce242    10.001   1_554     S
Ce246     Ce254    10.001   .     S
Ce246     Ti272    10.0   .     S
Ce247     Ce243    10.001   1_554     S
Ce247     Ce248    10.0   .     S
Ce247     Ce255    10.001   .     S
Ce248     Ce245    10.001   1_565     S
Ce248     Ce256    10.001   .     S
Ce249     Ce250    10.0   .     S
Ce249     Ce251    10.001   1_565     S
Ce250     Ce255    10.001   1_556     S
Ce251     Ce249    10.001   1_545     S
Ce251     Ce252    10.0   .     S
Ce252     Ce254    10.001   1_556     S
Ce252     Ti264    10.0   .     S
Ce253     Ce254    10.0   .     S
Ce253     Ce256    10.001   1_545     S
Ce254     Ce252    10.001   1_554     S
Ce254     Ti259    10.0   .     S
Ce255     Ce250    10.001   1_554     S
Ce255     Ce256    10.0   .     S
Ce256     Ce253    10.001   1_565     S
Ti257     Ce273    10.0   .     S
Ti257     Ti258    10.001   .     S
Ti259     Ti260    10.001   .     S
Ti260     Ce276    10.0   .     S
Ti261     Ti262    10.001   .     S
Ti262     Ce275    10.0   .     S
Ti263     Ce274    10.0   .     S
Ti263     Ti264    10.001   .     S
Ti265     Ce283    10.0   .     S
Ti265     Ti266    10.001   .     S
Ti267     Ce279    10.0   .     S
Ti267     Ti268    10.001   .     S
Ti269     Ce277    10.0   .     S
Ti269     Ti270    10.001   .     S
Ti271     Ce281    10.0   .     S
Ti271     Ti272    10.001   .     S
Ce273     Ce274    10.0   .     S
Ce273     Ce277    10.001   .     S
Ce273     Ce275    10.001   1_556     S
Ce274     Ce283    10.001   .     S
Ce274     Ce276    10.001   1_556     S
Ce275     Ce273    10.001   1_554     S
Ce275     Ce276    10.0   .     S
Ce275     Ce279    10.001   .     S
Ce276     Ce274    10.001   1_554     S
Ce276     Ce281    10.001   .     S
Ce277     Ce278    10.0   .     S
Ce277     Ce279    10.001   1_556     S
Ce278     Ce287    10.001   .     S
Ce278     Ce280    10.001   1_556     S
Ce279     Ce277    10.001   1_554     S
Ce279     Ce280    10.0   .     S
Ce280     Ce278    10.001   1_554     S
Ce280     Ce286    10.001   .     S
Ce281     Ce282    10.0   .     S
Ce281     Ce283    10.001   1_554     S
Ce282     Ce285    10.001   .     S
Ce282     Ce284    10.001   1_554     S
Ce283     Ce284    10.0   .     S
Ce283     Ce281    10.001   1_556     S
Ce284     Ce282    10.001   1_556     S
Ce284     Ce288    10.001   .     S
Ce285     Ce286    10.0   .     S
Ce285     Ce288    10.001   1_554     S
Ce286     Ce287    10.001   1_554     S
Ce287     Ce288    10.0   .     S
Ce287     Ce286    10.001   1_556     S
Ce288     Ce285    10.001   1_556     S
