data_urp
_audit_creation_date              2020-02-04
_audit_creation_method            'Pymatgen'
_symmetry_space_group_name_H-M    'P1'
_symmetry_Int_Tables_number       1
loop_
_symmetry_equiv_pos_as_xyz
  x,y,z
_cell_length_a                    37.7123
_cell_length_b                    37.7123
_cell_length_c                    37.7123
_cell_angle_alpha                 90.0
_cell_angle_beta                 90.0
_cell_angle_gamma                 90.0
loop_
_atom_site_label
_atom_site_type_symbol
_atom_site_fract_x
_atom_site_fract_y
_atom_site_fract_z
Ti1     Ti     0.3124   0.1874   0.5
Ti2     Ti     0.1874   0.3124   0.5
Ti3     Ti     0.1874   0.5   0.3124
Ti4     Ti     0.3124   0.5   0.1874
Ti5     Ti     0.5   0.1874   0.3124
Ti6     Ti     0.5   0.3124   0.1874
Ti7     Ti     0.1876   0.3126   0.0
Ti8     Ti     0.3126   0.1876   0.0
Er9     Er     0.25   0.25   0.75
Ti10     Ti     0.1876   0.0   0.3126
Ti11     Ti     0.3126   0.0   0.1876
Er12     Er     0.25   0.75   0.25
Ti13     Ti     0.0   0.1876   0.3126
Ti14     Ti     0.0   0.3126   0.1876
Er15     Er     0.75   0.25   0.25
Ti16     Ti     0.6874   0.1876   0.0
Ti17     Ti     0.8124   0.3126   0.0
Ti18     Ti     0.0   0.1876   0.6874
Ti19     Ti     0.0   0.3126   0.8124
Er20     Er     0.75   0.25   0.75
Ti21     Ti     0.1876   0.6874   0.0
Ti22     Ti     0.3126   0.8124   0.0
Ti23     Ti     0.1876   0.0   0.6874
Ti24     Ti     0.3126   0.0   0.8124
Er25     Er     0.25   0.75   0.75
Ti26     Ti     0.0   0.6874   0.1876
Ti27     Ti     0.0   0.8124   0.3126
Ti28     Ti     0.8124   0.0   0.3126
Ti29     Ti     0.6874   0.0   0.1876
Er30     Er     0.75   0.75   0.25
Ti31     Ti     0.6874   0.8124   0.0
Ti32     Ti     0.8124   0.6874   0.0
Ti33     Ti     0.8124   0.0   0.6874
Ti34     Ti     0.6874   0.0   0.8124
Ti35     Ti     0.0   0.8124   0.6874
Ti36     Ti     0.0   0.6874   0.8124
V37     V     0.0   0.0   0.5
V38     V     0.0   0.5   0.0
V39     V     0.5   0.0   0.0
Er40     Er     0.75   0.75   0.75
Ti41     Ti     0.3124   0.8126   0.5
Ti42     Ti     0.1874   0.6876   0.5
Ti43     Ti     0.8126   0.3124   0.5
Ti44     Ti     0.6876   0.1874   0.5
Ti45     Ti     0.6876   0.8126   0.5
Ti46     Ti     0.8126   0.6876   0.5
Ti47     Ti     0.5   0.3124   0.8126
Ti48     Ti     0.5   0.1874   0.6876
Ti49     Ti     0.5   0.8126   0.3124
Ti50     Ti     0.5   0.6876   0.1874
Ti51     Ti     0.8126   0.5   0.3124
Ti52     Ti     0.6876   0.5   0.1874
Ti53     Ti     0.5   0.6876   0.8126
Ti54     Ti     0.5   0.8126   0.6876
Ti55     Ti     0.8126   0.5   0.6876
Ti56     Ti     0.6876   0.5   0.8126
Ti57     Ti     0.3124   0.5   0.8126
Ti58     Ti     0.1874   0.5   0.6876
V59     V     0.0   0.5   0.5
V60     V     0.5   0.5   0.0
V61     V     0.5   0.0   0.5
Er62     Er     0.25   0.25   0.25
loop_
_geom_bond_atom_site_label_1
_geom_bond_atom_site_label_2
_geom_bond_distance
_geom_bond_site_symmetry_2
_ccdc_geom_bond_type
Ti1     Er9    10.0   .     S
Ti1     V61    10.0   .     S
Ti1     Er62    10.0   .     S
Ti2     Er9    10.0   .     S
Ti2     Er62    10.0   .     S
Ti2     V59    10.0   .     S
Ti3     Er12    10.0   .     S
Ti3     V59    10.0   .     S
Ti3     Er62    10.0   .     S
Ti4     Er12    10.0   .     S
Ti4     Er62    10.0   .     S
Ti4     V60    10.0   .     S
Ti5     Er62    10.0   .     S
Ti5     V61    10.0   .     S
Ti5     Er15    10.0   .     S
Ti6     Er62    10.0   .     S
Ti6     Er15    10.0   .     S
Ti6     V60    10.0   .     S
Ti7     Er9    10.0   1_554     S
Ti7     Er62    10.0   .     S
Ti7     V38    10.0   .     S
Ti8     Er9    10.0   1_554     S
Ti8     Er62    10.0   .     S
Ti8     V39    10.0   .     S
Er9     Ti8    10.0   1_556     S
Er9     Ti7    10.0   1_556     S
Er9     Ti19    10.0   .     S
Er9     Ti18    10.0   .     S
Er9     Ti23    10.0   .     S
Er9     Ti24    10.0   .     S
Er9     Ti47    10.0   .     S
Er9     Ti48    10.0   .     S
Er9     Ti58    10.0   .     S
Er9     Ti57    10.0   .     S
Ti10     Er12    10.0   1_545     S
Ti10     Er62    10.0   .     S
Ti10     V37    10.0   .     S
Ti11     Er12    10.0   1_545     S
Ti11     Er62    10.0   .     S
Ti11     V39    10.0   .     S
Er12     Ti10    10.0   1_565     S
Er12     Ti11    10.0   1_565     S
Er12     Ti22    10.0   .     S
Er12     Ti21    10.0   .     S
Er12     Ti26    10.0   .     S
Er12     Ti27    10.0   .     S
Er12     Ti41    10.0   .     S
Er12     Ti42    10.0   .     S
Er12     Ti50    10.0   .     S
Er12     Ti49    10.0   .     S
Ti13     Er15    10.0   1_455     S
Ti13     Er62    10.0   .     S
Ti13     V37    10.0   .     S
Ti14     Er15    10.0   1_455     S
Ti14     Er62    10.0   .     S
Ti14     V38    10.0   .     S
Er15     Ti14    10.0   1_655     S
Er15     Ti13    10.0   1_655     S
Er15     Ti16    10.0   .     S
Er15     Ti17    10.0   .     S
Er15     Ti28    10.0   .     S
Er15     Ti29    10.0   .     S
Er15     Ti44    10.0   .     S
Er15     Ti43    10.0   .     S
Er15     Ti51    10.0   .     S
Er15     Ti52    10.0   .     S
Ti16     Er20    10.0   1_554     S
Ti16     V39    10.0   .     S
Ti17     Er20    10.0   1_554     S
Ti17     V38    10.0   1_655     S
Ti18     Er20    10.0   1_455     S
Ti18     V37    10.0   .     S
Ti19     Er20    10.0   1_455     S
Ti19     V38    10.0   1_556     S
Er20     Ti17    10.0   1_556     S
Er20     Ti16    10.0   1_556     S
Er20     Ti18    10.0   1_655     S
Er20     Ti19    10.0   1_655     S
Er20     Ti34    10.0   .     S
Er20     Ti33    10.0   .     S
Er20     Ti43    10.0   .     S
Er20     Ti44    10.0   .     S
Er20     Ti48    10.0   .     S
Er20     Ti47    10.0   .     S
Er20     Ti56    10.0   .     S
Er20     Ti55    10.0   .     S
Ti21     Er25    10.0   1_554     S
Ti21     V38    10.0   .     S
Ti22     Er25    10.0   1_554     S
Ti22     V39    10.0   1_565     S
Ti23     Er25    10.0   1_545     S
Ti23     V37    10.0   .     S
Ti24     Er25    10.0   1_545     S
Ti24     V39    10.0   1_556     S
Er25     Ti21    10.0   1_556     S
Er25     Ti22    10.0   1_556     S
Er25     Ti24    10.0   1_565     S
Er25     Ti23    10.0   1_565     S
Er25     Ti35    10.0   .     S
Er25     Ti36    10.0   .     S
Er25     Ti42    10.0   .     S
Er25     Ti41    10.0   .     S
Er25     Ti54    10.0   .     S
Er25     Ti53    10.0   .     S
Er25     Ti57    10.0   .     S
Er25     Ti58    10.0   .     S
Ti26     Er30    10.0   1_455     S
Ti26     V38    10.0   .     S
Ti27     Er30    10.0   1_455     S
Ti27     V37    10.0   1_565     S
Ti28     Er30    10.0   1_545     S
Ti28     V37    10.0   1_655     S
Ti29     Er30    10.0   1_545     S
Ti29     V39    10.0   .     S
Er30     Ti27    10.0   1_655     S
Er30     Ti26    10.0   1_655     S
Er30     Ti29    10.0   1_565     S
Er30     Ti28    10.0   1_565     S
Er30     Ti32    10.0   .     S
Er30     Ti31    10.0   .     S
Er30     Ti46    10.0   .     S
Er30     Ti45    10.0   .     S
Er30     Ti49    10.0   .     S
Er30     Ti50    10.0   .     S
Er30     Ti52    10.0   .     S
Er30     Ti51    10.0   .     S
Ti31     Er40    10.0   1_554     S
Ti31     V39    10.0   1_565     S
Ti32     Er40    10.0   1_554     S
Ti32     V38    10.0   1_655     S
Ti33     Er40    10.0   1_545     S
Ti33     V37    10.0   1_655     S
Ti34     Er40    10.0   1_545     S
Ti34     V39    10.0   1_556     S
Ti35     Er40    10.0   1_455     S
Ti35     V37    10.0   1_565     S
Ti36     Er40    10.0   1_455     S
Ti36     V38    10.0   1_556     S
V37     Ti27    10.0   1_545     S
V37     Ti28    10.0   1_455     S
V37     Ti33    10.0   1_455     S
V37     Ti35    10.0   1_545     S
V38     Ti17    10.0   1_455     S
V38     Ti19    10.0   1_554     S
V38     Ti32    10.0   1_455     S
V38     Ti36    10.0   1_554     S
V39     Ti22    10.0   1_545     S
V39     Ti24    10.0   1_554     S
V39     Ti31    10.0   1_545     S
V39     Ti34    10.0   1_554     S
Er40     Ti31    10.0   1_556     S
Er40     Ti32    10.0   1_556     S
Er40     Ti33    10.0   1_565     S
Er40     Ti34    10.0   1_565     S
Er40     Ti36    10.0   1_655     S
Er40     Ti35    10.0   1_655     S
Er40     Ti45    10.0   .     S
Er40     Ti46    10.0   .     S
Er40     Ti53    10.0   .     S
Er40     Ti54    10.0   .     S
Er40     Ti55    10.0   .     S
Er40     Ti56    10.0   .     S
Ti41     V61    10.0   1_565     S
Ti42     V59    10.0   .     S
Ti43     V59    10.0   1_655     S
Ti44     V61    10.0   .     S
Ti45     V61    10.0   1_565     S
Ti46     V59    10.0   1_655     S
Ti47     V60    10.0   1_556     S
Ti48     V61    10.0   .     S
Ti49     V61    10.0   1_565     S
Ti50     V60    10.0   .     S
Ti51     V59    10.0   1_655     S
Ti52     V60    10.0   .     S
Ti53     V60    10.0   1_556     S
Ti54     V61    10.0   1_565     S
Ti55     V59    10.0   1_655     S
Ti56     V60    10.0   1_556     S
Ti57     V60    10.0   1_556     S
Ti58     V59    10.0   .     S
V59     Ti43    10.0   1_455     S
V59     Ti46    10.0   1_455     S
V59     Ti51    10.0   1_455     S
V59     Ti55    10.0   1_455     S
V60     Ti47    10.0   1_554     S
V60     Ti53    10.0   1_554     S
V60     Ti56    10.0   1_554     S
V60     Ti57    10.0   1_554     S
V61     Ti41    10.0   1_545     S
V61     Ti45    10.0   1_545     S
V61     Ti49    10.0   1_545     S
V61     Ti54    10.0   1_545     S
