data_urpa
_audit_creation_date              2020-02-04
_audit_creation_method            'Pymatgen'
_symmetry_space_group_name_H-M    'P1'
_symmetry_Int_Tables_number       1
loop_
_symmetry_equiv_pos_as_xyz
  x,y,z
_cell_length_a                    98.4367
_cell_length_b                    98.4367
_cell_length_c                    98.4367
_cell_angle_alpha                 90.0
_cell_angle_beta                 90.0
_cell_angle_gamma                 90.0
loop_
_atom_site_label
_atom_site_type_symbol
_atom_site_fract_x
_atom_site_fract_y
_atom_site_fract_z
Ce1     Ce     0.3584   0.1246   0.5
Er2     Er     0.2968   0.1874   0.5508
Er3     Er     0.2968   0.1874   0.4492
Ce4     Ce     0.6416   0.1246   0.5
Er5     Er     0.7032   0.1874   0.4492
Er6     Er     0.7032   0.1874   0.5508
Ce7     Ce     0.5   0.1246   0.3584
Er8     Er     0.4492   0.1874   0.2968
Er9     Er     0.5508   0.1874   0.2968
Ce10     Ce     0.5   0.1246   0.6416
Er11     Er     0.5508   0.1874   0.7032
Er12     Er     0.4492   0.1874   0.7032
Ce13     Ce     0.3584   0.8754   0.5
Er14     Er     0.2968   0.8126   0.4492
Er15     Er     0.2968   0.8126   0.5508
Ce16     Ce     0.6416   0.8754   0.5
Er17     Er     0.7032   0.8126   0.5508
Er18     Er     0.7032   0.8126   0.4492
Ce19     Ce     0.5   0.8754   0.3584
Er20     Er     0.5508   0.8126   0.2968
Er21     Er     0.4492   0.8126   0.2968
Ti22     Ti     0.5   0.0508   0.4282
Ti23     Ti     0.5   0.9492   0.4282
Ti24     Ti     0.5718   0.0508   0.5
Ti25     Ti     0.5718   0.9492   0.5
Ti26     Ti     0.5   0.0508   0.5718
Ti27     Ti     0.5   0.9492   0.5718
Ti28     Ti     0.4282   0.0508   0.5
Ti29     Ti     0.4282   0.9492   0.5
Ce30     Ce     0.5   0.8754   0.6416
Er31     Er     0.4492   0.8126   0.7032
Er32     Er     0.5508   0.8126   0.7032
Ce33     Ce     0.1246   0.6416   0.5
Er34     Er     0.1874   0.7032   0.5508
Er35     Er     0.1874   0.7032   0.4492
Ce36     Ce     0.1246   0.3584   0.5
Er37     Er     0.1874   0.2968   0.4492
Er38     Er     0.1874   0.2968   0.5508
Ce39     Ce     0.1246   0.5   0.3584
Er40     Er     0.1874   0.5508   0.2968
Er41     Er     0.1874   0.4492   0.2968
Ce42     Ce     0.1246   0.5   0.6416
Er43     Er     0.1874   0.4492   0.7032
Er44     Er     0.1874   0.5508   0.7032
Ce45     Ce     0.8754   0.3584   0.5
Er46     Er     0.8126   0.2968   0.5508
Er47     Er     0.8126   0.2968   0.4492
Ce48     Ce     0.8754   0.6416   0.5
Er49     Er     0.8126   0.7032   0.4492
Er50     Er     0.8126   0.7032   0.5508
Ce51     Ce     0.8754   0.5   0.3584
Er52     Er     0.8126   0.4492   0.2968
Er53     Er     0.8126   0.5508   0.2968
Ti54     Ti     0.0508   0.5   0.4282
Ti55     Ti     0.9492   0.5   0.4282
Ti56     Ti     0.0508   0.5718   0.5
Ti57     Ti     0.9492   0.5718   0.5
Ti58     Ti     0.0508   0.5   0.5718
Ti59     Ti     0.9492   0.5   0.5718
Ti60     Ti     0.0508   0.4282   0.5
Ti61     Ti     0.9492   0.4282   0.5
Ce62     Ce     0.8754   0.5   0.6416
Er63     Er     0.8126   0.5508   0.7032
Er64     Er     0.8126   0.4492   0.7032
Ce65     Ce     0.3584   0.5   0.1246
Er66     Er     0.2968   0.4492   0.1874
Er67     Er     0.2968   0.5508   0.1874
Ce68     Ce     0.5   0.6416   0.1246
Er69     Er     0.4492   0.7032   0.1874
Er70     Er     0.5508   0.7032   0.1874
Ce71     Ce     0.6416   0.5   0.1246
Er72     Er     0.7032   0.5508   0.1874
Er73     Er     0.7032   0.4492   0.1874
Ce74     Ce     0.5   0.3584   0.1246
Er75     Er     0.5508   0.2968   0.1874
Er76     Er     0.4492   0.2968   0.1874
Ce77     Ce     0.6416   0.5   0.8754
Er78     Er     0.7032   0.4492   0.8126
Er79     Er     0.7032   0.5508   0.8126
Ce80     Ce     0.5   0.3584   0.8754
Er81     Er     0.4492   0.2968   0.8126
Er82     Er     0.5508   0.2968   0.8126
Ce83     Ce     0.3584   0.5   0.8754
Er84     Er     0.2968   0.5508   0.8126
Er85     Er     0.2968   0.4492   0.8126
Ti86     Ti     0.5   0.4282   0.0508
Ti87     Ti     0.5   0.4282   0.9492
Ti88     Ti     0.5718   0.5   0.0508
Ti89     Ti     0.5718   0.5   0.9492
Ti90     Ti     0.5   0.5718   0.0508
Ti91     Ti     0.5   0.5718   0.9492
Ti92     Ti     0.4282   0.5   0.0508
Ti93     Ti     0.4282   0.5   0.9492
Ce94     Ce     0.5   0.6416   0.8754
Er95     Er     0.5508   0.7032   0.8126
Er96     Er     0.4492   0.7032   0.8126
V97     V     0.3512   0.2793   0.2075
V98     V     0.2793   0.3512   0.2075
V99     V     0.2207   0.2925   0.1488
V100     V     0.1488   0.2925   0.2207
V101     V     0.2925   0.2207   0.1488
V102     V     0.2925   0.1488   0.2207
V103     V     0.3512   0.2075   0.2793
V104     V     0.2793   0.2075   0.3512
V105     V     0.2075   0.3512   0.2793
V106     V     0.2075   0.2793   0.3512
V107     V     0.2207   0.1488   0.2925
V108     V     0.1488   0.2207   0.2925
V109     V     0.2207   0.2925   0.8512
V110     V     0.1488   0.2925   0.7793
V111     V     0.2075   0.2793   0.6488
V112     V     0.2075   0.3512   0.7207
V113     V     0.2793   0.2075   0.6488
V114     V     0.3512   0.2075   0.7207
V115     V     0.1488   0.2207   0.7075
V116     V     0.2207   0.1488   0.7075
V117     V     0.2793   0.3512   0.7925
V118     V     0.3512   0.2793   0.7925
V119     V     0.2925   0.2207   0.8512
V120     V     0.2925   0.1488   0.7793
V121     V     0.8512   0.2207   0.2925
V122     V     0.7793   0.1488   0.2925
V123     V     0.6488   0.2075   0.2793
V124     V     0.7207   0.2075   0.3512
V125     V     0.6488   0.2793   0.2075
V126     V     0.7207   0.3512   0.2075
V127     V     0.7075   0.1488   0.2207
V128     V     0.7075   0.2207   0.1488
V129     V     0.7925   0.2793   0.3512
V130     V     0.7925   0.3512   0.2793
V131     V     0.8512   0.2925   0.2207
V132     V     0.7793   0.2925   0.1488
V133     V     0.2925   0.8512   0.2207
V134     V     0.2925   0.7793   0.1488
V135     V     0.2793   0.6488   0.2075
V136     V     0.3512   0.7207   0.2075
V137     V     0.2075   0.6488   0.2793
V138     V     0.2075   0.7207   0.3512
V139     V     0.2207   0.7075   0.1488
V140     V     0.1488   0.7075   0.2207
V141     V     0.3512   0.7925   0.2793
V142     V     0.2793   0.7925   0.3512
V143     V     0.2207   0.8512   0.2925
V144     V     0.1488   0.7793   0.2925
V145     V     0.2925   0.7793   0.8512
V146     V     0.2925   0.8512   0.7793
V147     V     0.2793   0.7925   0.6488
V148     V     0.3512   0.7925   0.7207
V149     V     0.2207   0.8512   0.7075
V150     V     0.1488   0.7793   0.7075
V151     V     0.2075   0.7207   0.6488
V152     V     0.2075   0.6488   0.7207
V153     V     0.2793   0.6488   0.7925
V154     V     0.3512   0.7207   0.7925
V155     V     0.2207   0.7075   0.8512
V156     V     0.1488   0.7075   0.7793
V157     V     0.7793   0.8512   0.2925
V158     V     0.8512   0.7793   0.2925
V159     V     0.7925   0.6488   0.2793
V160     V     0.7925   0.7207   0.3512
V161     V     0.8512   0.7075   0.2207
V162     V     0.7793   0.7075   0.1488
V163     V     0.7207   0.6488   0.2075
V164     V     0.6488   0.7207   0.2075
V165     V     0.6488   0.7925   0.2793
V166     V     0.7207   0.7925   0.3512
V167     V     0.7075   0.8512   0.2207
V168     V     0.7075   0.7793   0.1488
Ce169     Ce     0.1416   0.6246   0.0
Er170     Er     0.2032   0.6874   0.0508
Er171     Er     0.2032   0.6874   0.9492
Ce172     Ce     0.1416   0.3754   0.0
Er173     Er     0.2032   0.3126   0.0508
Er174     Er     0.2032   0.3126   0.9492
Ce175     Ce     0.0   0.6246   0.1416
Er176     Er     0.0508   0.6874   0.2032
Er177     Er     0.9492   0.6874   0.2032
Ce178     Ce     0.0   0.3754   0.1416
Er179     Er     0.0508   0.3126   0.2032
Er180     Er     0.9492   0.3126   0.2032
Ce181     Ce     0.8584   0.6246   0.0
Er182     Er     0.7968   0.6874   0.0508
Er183     Er     0.7968   0.6874   0.9492
Ce184     Ce     0.8584   0.3754   0.0
Er185     Er     0.7968   0.3126   0.0508
Er186     Er     0.7968   0.3126   0.9492
Ce187     Ce     0.0   0.3754   0.8584
Er188     Er     0.0508   0.3126   0.7968
Er189     Er     0.9492   0.3126   0.7968
Ti190     Ti     0.9282   0.4492   0.0
Ti191     Ti     0.9282   0.5508   0.0
Ti192     Ti     0.0   0.5508   0.9282
Ti193     Ti     0.0   0.4492   0.9282
Ti194     Ti     0.0   0.5508   0.0718
Ti195     Ti     0.0   0.4492   0.0718
Ti196     Ti     0.0718   0.4492   0.0
Ti197     Ti     0.0718   0.5508   0.0
Ce198     Ce     0.0   0.6246   0.8584
Er199     Er     0.0508   0.6874   0.7968
Er200     Er     0.9492   0.6874   0.7968
V201     V     0.7075   0.8512   0.7793
V202     V     0.7075   0.7793   0.8512
V203     V     0.6488   0.7207   0.7925
V204     V     0.7207   0.6488   0.7925
V205     V     0.7793   0.7075   0.8512
V206     V     0.8512   0.7075   0.7793
V207     V     0.7925   0.6488   0.7207
V208     V     0.7925   0.7207   0.6488
V209     V     0.6488   0.7925   0.7207
V210     V     0.7207   0.7925   0.6488
V211     V     0.8512   0.7793   0.7075
V212     V     0.7793   0.8512   0.7075
Ce213     Ce     0.3754   0.1416   0.0
Er214     Er     0.3126   0.2032   0.0508
Er215     Er     0.3126   0.2032   0.9492
Ce216     Ce     0.6246   0.0   0.1416
Er217     Er     0.6874   0.0508   0.2032
Er218     Er     0.6874   0.9492   0.2032
Ce219     Ce     0.3754   0.0   0.1416
Er220     Er     0.3126   0.0508   0.2032
Er221     Er     0.3126   0.9492   0.2032
Ce222     Ce     0.6246   0.1416   0.0
Er223     Er     0.6874   0.2032   0.0508
Er224     Er     0.6874   0.2032   0.9492
Ce225     Ce     0.3754   0.8584   0.0
Er226     Er     0.3126   0.7968   0.0508
Er227     Er     0.3126   0.7968   0.9492
Ce228     Ce     0.6246   0.8584   0.0
Er229     Er     0.6874   0.7968   0.0508
Er230     Er     0.6874   0.7968   0.9492
Ce231     Ce     0.6246   0.0   0.8584
Er232     Er     0.6874   0.0508   0.7968
Er233     Er     0.6874   0.9492   0.7968
Ti234     Ti     0.5508   0.9282   0.0
Ti235     Ti     0.4492   0.9282   0.0
Ti236     Ti     0.4492   0.0   0.9282
Ti237     Ti     0.5508   0.0   0.9282
Ti238     Ti     0.4492   0.0   0.0718
Ti239     Ti     0.5508   0.0   0.0718
Ti240     Ti     0.5508   0.0718   0.0
Ti241     Ti     0.4492   0.0718   0.0
Ce242     Ce     0.3754   0.0   0.8584
Er243     Er     0.3126   0.0508   0.7968
Er244     Er     0.3126   0.9492   0.7968
Ce245     Ce     0.0   0.1416   0.6246
Er246     Er     0.0508   0.2032   0.6874
Er247     Er     0.9492   0.2032   0.6874
Ce248     Ce     0.1416   0.0   0.6246
Er249     Er     0.2032   0.0508   0.6874
Er250     Er     0.2032   0.9492   0.6874
Ce251     Ce     0.1416   0.0   0.3754
Er252     Er     0.2032   0.0508   0.3126
Er253     Er     0.2032   0.9492   0.3126
Ce254     Ce     0.0   0.1416   0.3754
Er255     Er     0.0508   0.2032   0.3126
Er256     Er     0.9492   0.2032   0.3126
Ce257     Ce     0.8584   0.0   0.6246
Er258     Er     0.7968   0.0508   0.6874
Er259     Er     0.7968   0.9492   0.6874
Ce260     Ce     0.0   0.8584   0.6246
Er261     Er     0.0508   0.7968   0.6874
Er262     Er     0.9492   0.7968   0.6874
Ce263     Ce     0.0   0.8584   0.3754
Er264     Er     0.0508   0.7968   0.3126
Er265     Er     0.9492   0.7968   0.3126
Ti266     Ti     0.0   0.9282   0.4492
Ti267     Ti     0.0   0.9282   0.5508
Ti268     Ti     0.9282   0.0   0.4492
Ti269     Ti     0.9282   0.0   0.5508
Ti270     Ti     0.0718   0.0   0.4492
Ti271     Ti     0.0718   0.0   0.5508
Ti272     Ti     0.0   0.0718   0.4492
Ti273     Ti     0.0   0.0718   0.5508
Ce274     Ce     0.8584   0.0   0.3754
Er275     Er     0.7968   0.0508   0.3126
Er276     Er     0.7968   0.9492   0.3126
V277     V     0.8512   0.2925   0.7793
V278     V     0.7793   0.2925   0.8512
V279     V     0.6488   0.2793   0.7925
V280     V     0.7207   0.3512   0.7925
V281     V     0.7075   0.2207   0.8512
V282     V     0.7075   0.1488   0.7793
V283     V     0.6488   0.2075   0.7207
V284     V     0.7207   0.2075   0.6488
V285     V     0.7925   0.2793   0.6488
V286     V     0.7925   0.3512   0.7207
V287     V     0.8512   0.2207   0.7075
V288     V     0.7793   0.1488   0.7075
loop_
_geom_bond_atom_site_label_1
_geom_bond_atom_site_label_2
_geom_bond_distance
_geom_bond_site_symmetry_2
_ccdc_geom_bond_type
Ce1     Ti28    10.0   .     S
Ce1     Er2    10.0   .     S
Ce1     Er3    10.0   .     S
Er2     Er3    9.999   .     S
Er2     V113    10.0   .     S
Er3     V104    10.0   .     S
Ce4     Ti24    10.0   .     S
Ce4     Er5    10.0   .     S
Ce4     Er6    10.0   .     S
Er5     Er6    9.999   .     S
Er5     V124    10.0   .     S
Er6     V284    10.0   .     S
Ce7     Ti22    10.0   .     S
Ce7     Er8    10.0   .     S
Ce7     Er9    10.0   .     S
Er8     Er9    9.999   .     S
Er8     V103    10.0   .     S
Er9     V123    10.0   .     S
Ce10     Ti26    10.0   .     S
Ce10     Er11    10.0   .     S
Ce10     Er12    10.0   .     S
Er11     Er12    9.999   .     S
Er11     V283    10.0   .     S
Er12     V114    10.0   .     S
Ce13     Ti29    10.0   .     S
Ce13     Er14    10.0   .     S
Ce13     Er15    10.0   .     S
Er14     Er15    9.999   .     S
Er14     V142    10.0   .     S
Er15     V147    10.0   .     S
Ce16     Ti25    10.0   .     S
Ce16     Er17    10.0   .     S
Ce16     Er18    10.0   .     S
Er17     Er18    9.999   .     S
Er17     V210    10.0   .     S
Er18     V166    10.0   .     S
Ce19     Ti23    10.0   .     S
Ce19     Er20    10.0   .     S
Ce19     Er21    10.0   .     S
Er20     Er21    9.999   .     S
Er20     V165    10.0   .     S
Er21     V141    10.0   .     S
Ti22     Ti23    9.999   1_545     S
Ti22     Ti24    9.999   .     S
Ti22     Ti28    9.999   .     S
Ti23     Ti22    9.999   1_565     S
Ti23     Ti25    9.999   .     S
Ti23     Ti29    9.999   .     S
Ti24     Ti25    9.999   1_545     S
Ti24     Ti26    9.999   .     S
Ti25     Ti24    9.999   1_565     S
Ti25     Ti27    9.999   .     S
Ti26     Ti27    9.999   1_545     S
Ti26     Ti28    9.999   .     S
Ti27     Ti26    9.999   1_565     S
Ti27     Ti29    9.999   .     S
Ti27     Ce30    10.0   .     S
Ti28     Ti29    9.999   1_545     S
Ti29     Ti28    9.999   1_565     S
Ce30     Er31    10.0   .     S
Ce30     Er32    10.0   .     S
Er31     Er32    9.999   .     S
Er31     V148    10.0   .     S
Er32     V209    10.0   .     S
Ce33     Ti56    10.0   .     S
Ce33     Er34    10.0   .     S
Ce33     Er35    10.0   .     S
Er34     Er35    9.999   .     S
Er34     V151    10.0   .     S
Er35     V138    10.0   .     S
Ce36     Ti60    10.0   .     S
Ce36     Er37    10.0   .     S
Ce36     Er38    10.0   .     S
Er37     Er38    9.999   .     S
Er37     V106    10.0   .     S
Er38     V111    10.0   .     S
Ce39     Ti54    10.0   .     S
Ce39     Er40    10.0   .     S
Ce39     Er41    10.0   .     S
Er40     Er41    9.999   .     S
Er40     V137    10.0   .     S
Er41     V105    10.0   .     S
Ce42     Ti58    10.0   .     S
Ce42     Er43    10.0   .     S
Ce42     Er44    10.0   .     S
Er43     Er44    9.999   .     S
Er43     V112    10.0   .     S
Er44     V152    10.0   .     S
Ce45     Ti61    10.0   .     S
Ce45     Er46    10.0   .     S
Ce45     Er47    10.0   .     S
Er46     Er47    9.999   .     S
Er46     V285    10.0   .     S
Er47     V129    10.0   .     S
Ce48     Ti57    10.0   .     S
Ce48     Er49    10.0   .     S
Ce48     Er50    10.0   .     S
Er49     Er50    9.999   .     S
Er49     V160    10.0   .     S
Er50     V208    10.0   .     S
Ce51     Ti55    10.0   .     S
Ce51     Er52    10.0   .     S
Ce51     Er53    10.0   .     S
Er52     Er53    9.999   .     S
Er52     V130    10.0   .     S
Er53     V159    10.0   .     S
Ti54     Ti55    9.999   1_455     S
Ti54     Ti56    9.999   .     S
Ti54     Ti60    9.999   .     S
Ti55     Ti54    9.999   1_655     S
Ti55     Ti57    9.999   .     S
Ti55     Ti61    9.999   .     S
Ti56     Ti57    9.999   1_455     S
Ti56     Ti58    9.999   .     S
Ti57     Ti56    9.999   1_655     S
Ti57     Ti59    9.999   .     S
Ti58     Ti59    9.999   1_455     S
Ti58     Ti60    9.999   .     S
Ti59     Ti58    9.999   1_655     S
Ti59     Ti61    9.999   .     S
Ti59     Ce62    10.0   .     S
Ti60     Ti61    9.999   1_455     S
Ti61     Ti60    9.999   1_655     S
Ce62     Er63    10.0   .     S
Ce62     Er64    10.0   .     S
Er63     Er64    9.999   .     S
Er63     V207    10.0   .     S
Er64     V286    10.0   .     S
Ce65     Ti92    10.0   .     S
Ce65     Er66    10.0   .     S
Ce65     Er67    10.0   .     S
Er66     Er67    9.999   .     S
Er66     V98    10.0   .     S
Er67     V135    10.0   .     S
Ce68     Ti90    10.0   .     S
Ce68     Er69    10.0   .     S
Ce68     Er70    10.0   .     S
Er69     Er70    9.999   .     S
Er69     V136    10.0   .     S
Er70     V164    10.0   .     S
Ce71     Ti88    10.0   .     S
Ce71     Er72    10.0   .     S
Ce71     Er73    10.0   .     S
Er72     Er73    9.999   .     S
Er72     V163    10.0   .     S
Er73     V126    10.0   .     S
Ce74     Ti86    10.0   .     S
Ce74     Er75    10.0   .     S
Ce74     Er76    10.0   .     S
Er75     Er76    9.999   .     S
Er75     V125    10.0   .     S
Er76     V97    10.0   .     S
Ce77     Ti89    10.0   .     S
Ce77     Er78    10.0   .     S
Ce77     Er79    10.0   .     S
Er78     Er79    9.999   .     S
Er78     V280    10.0   .     S
Er79     V204    10.0   .     S
Ce80     Ti87    10.0   .     S
Ce80     Er81    10.0   .     S
Ce80     Er82    10.0   .     S
Er81     Er82    9.999   .     S
Er81     V118    10.0   .     S
Er82     V279    10.0   .     S
Ce83     Ti93    10.0   .     S
Ce83     Er84    10.0   .     S
Ce83     Er85    10.0   .     S
Er84     Er85    9.999   .     S
Er84     V153    10.0   .     S
Er85     V117    10.0   .     S
Ti86     Ti87    9.999   1_554     S
Ti86     Ti88    9.999   .     S
Ti86     Ti92    9.999   .     S
Ti87     Ti86    9.999   1_556     S
Ti87     Ti89    9.999   .     S
Ti87     Ti93    9.999   .     S
Ti88     Ti89    9.999   1_554     S
Ti88     Ti90    9.999   .     S
Ti89     Ti88    9.999   1_556     S
Ti89     Ti91    9.999   .     S
Ti90     Ti91    9.999   1_554     S
Ti90     Ti92    9.999   .     S
Ti91     Ti90    9.999   1_556     S
Ti91     Ti93    9.999   .     S
Ti91     Ce94    10.0   .     S
Ti92     Ti93    9.999   1_554     S
Ti93     Ti92    9.999   1_556     S
Ce94     Er95    10.0   .     S
Ce94     Er96    10.0   .     S
Er95     Er96    9.999   .     S
Er95     V203    10.0   .     S
Er96     V154    10.0   .     S
V97     V98    9.999   .     S
V97     V101    10.0   .     S
V97     V103    10.001   .     S
V98     V99    10.0   .     S
V98     V105    10.001   .     S
V99     Er173    10.0   .     S
V99     V100    9.999   .     S
V99     V101    10.001   .     S
V100     Er179    10.0   .     S
V100     V105    10.0   .     S
V100     V108    10.001   .     S
V101     Er214    10.0   .     S
V101     V102    9.999   .     S
V102     Er220    10.0   .     S
V102     V103    10.0   .     S
V102     V107    10.001   .     S
V103     V104    9.999   .     S
V104     V107    10.0   .     S
V104     V106    10.001   .     S
V105     V106    9.999   .     S
V106     V108    10.0   .     S
V107     Er252    10.0   .     S
V107     V108    9.999   .     S
V108     Er255    10.0   .     S
V109     Er174    10.0   .     S
V109     V110    9.999   .     S
V109     V117    10.0   .     S
V109     V119    10.001   .     S
V110     Er188    10.0   .     S
V110     V112    10.0   .     S
V110     V115    10.001   .     S
V111     V112    9.999   .     S
V111     V115    10.0   .     S
V111     V113    10.001   .     S
V112     V117    10.001   .     S
V113     V114    9.999   .     S
V113     V116    10.0   .     S
V114     V120    10.0   .     S
V114     V118    10.001   .     S
V115     Er246    10.0   .     S
V115     V116    9.999   .     S
V116     Er249    10.0   .     S
V116     V120    10.001   .     S
V117     V118    9.999   .     S
V118     V119    10.0   .     S
V119     Er215    10.0   .     S
V119     V120    9.999   .     S
V120     Er243    10.0   .     S
V121     Er256    10.0   .     S
V121     V122    9.999   .     S
V121     V129    10.0   .     S
V121     V131    10.001   .     S
V122     Er275    10.0   .     S
V122     V124    10.0   .     S
V122     V127    10.001   .     S
V123     V124    9.999   .     S
V123     V127    10.0   .     S
V123     V125    10.001   .     S
V124     V129    10.001   .     S
V125     V126    9.999   .     S
V125     V128    10.0   .     S
V126     V132    10.0   .     S
V126     V130    10.001   .     S
V127     Er217    10.0   .     S
V127     V128    9.999   .     S
V128     Er223    10.0   .     S
V128     V132    10.001   .     S
V129     V130    9.999   .     S
V130     V131    10.0   .     S
V131     Er180    10.0   .     S
V131     V132    9.999   .     S
V132     Er185    10.0   .     S
V133     Er221    10.0   .     S
V133     V134    9.999   .     S
V133     V141    10.0   .     S
V133     V143    10.001   .     S
V134     Er226    10.0   .     S
V134     V136    10.0   .     S
V134     V139    10.001   .     S
V135     V136    9.999   .     S
V135     V139    10.0   .     S
V135     V137    10.001   .     S
V136     V141    10.001   .     S
V137     V138    9.999   .     S
V137     V140    10.0   .     S
V138     V144    10.0   .     S
V138     V142    10.001   .     S
V139     Er170    10.0   .     S
V139     V140    9.999   .     S
V140     Er176    10.0   .     S
V140     V144    10.001   .     S
V141     V142    9.999   .     S
V142     V143    10.0   .     S
V143     Er253    10.0   .     S
V143     V144    9.999   .     S
V144     Er264    10.0   .     S
V145     Er227    10.0   .     S
V145     V146    9.999   .     S
V145     V154    10.0   .     S
V145     V155    10.001   .     S
V146     Er244    10.0   .     S
V146     V148    10.0   .     S
V146     V149    10.001   .     S
V147     V148    9.999   .     S
V147     V149    10.0   .     S
V147     V151    10.001   .     S
V148     V154    10.001   .     S
V149     Er250    10.0   .     S
V149     V150    9.999   .     S
V150     Er261    10.0   .     S
V150     V151    10.0   .     S
V150     V156    10.001   .     S
V151     V152    9.999   .     S
V152     V156    10.0   .     S
V152     V153    10.001   .     S
V153     V154    9.999   .     S
V153     V155    10.0   .     S
V155     Er171    10.0   .     S
V155     V156    9.999   .     S
V156     Er199    10.0   .     S
V157     Er276    10.0   .     S
V157     V158    9.999   .     S
V157     V166    10.0   .     S
V157     V167    10.001   .     S
V158     Er265    10.0   .     S
V158     V160    10.0   .     S
V158     V161    10.001   .     S
V159     V160    9.999   .     S
V159     V161    10.0   .     S
V159     V163    10.001   .     S
V160     V166    10.001   .     S
V161     Er177    10.0   .     S
V161     V162    9.999   .     S
V162     Er182    10.0   .     S
V162     V163    10.0   .     S
V162     V168    10.001   .     S
V163     V164    9.999   .     S
V164     V168    10.0   .     S
V164     V165    10.001   .     S
V165     V166    9.999   .     S
V165     V167    10.0   .     S
V167     Er218    10.0   .     S
V167     V168    9.999   .     S
V168     Er229    10.0   .     S
Ce169     Ti197    10.0   .     S
Ce169     Er170    10.0   .     S
Ce169     Er171    10.0   1_554     S
Er170     Er171    9.999   1_554     S
Er171     Er170    9.999   1_556     S
Er171     Ce169    10.0   1_556     S
Ce172     Ti196    10.0   .     S
Ce172     Er173    10.0   .     S
Ce172     Er174    10.0   1_554     S
Er173     Er174    9.999   1_554     S
Er174     Er173    9.999   1_556     S
Er174     Ce172    10.0   1_556     S
Ce175     Ti194    10.0   .     S
Ce175     Er176    10.0   .     S
Ce175     Er177    10.0   1_455     S
Er176     Er177    9.999   1_455     S
Er177     Er176    9.999   1_655     S
Er177     Ce175    10.0   1_655     S
Ce178     Ti195    10.0   .     S
Ce178     Er179    10.0   .     S
Ce178     Er180    10.0   1_455     S
Er179     Er180    9.999   1_455     S
Er180     Er179    9.999   1_655     S
Er180     Ce178    10.0   1_655     S
Ce181     Ti191    10.0   .     S
Ce181     Er182    10.0   .     S
Ce181     Er183    10.0   1_554     S
Er182     Er183    9.999   1_554     S
Er183     Er182    9.999   1_556     S
Er183     Ce181    10.0   1_556     S
Er183     V205    10.0   .     S
Ce184     Ti190    10.0   .     S
Ce184     Er185    10.0   .     S
Ce184     Er186    10.0   1_554     S
Er185     Er186    9.999   1_554     S
Er186     Er185    9.999   1_556     S
Er186     Ce184    10.0   1_556     S
Er186     V278    10.0   .     S
Ce187     Ti193    10.0   .     S
Ce187     Er188    10.0   .     S
Ce187     Er189    10.0   1_455     S
Er188     Er189    9.999   1_455     S
Er189     Er188    9.999   1_655     S
Er189     Ce187    10.0   1_655     S
Er189     V277    10.0   .     S
Ti190     Ti191    9.999   .     S
Ti190     Ti195    9.999   1_655     S
Ti190     Ti193    9.999   1_654     S
Ti191     Ti194    9.999   1_655     S
Ti191     Ti192    9.999   1_654     S
Ti192     Ti193    9.999   .     S
Ti192     Ti197    9.999   1_556     S
Ti192     Ti191    9.999   1_456     S
Ti192     Ce198    10.0   .     S
Ti193     Ti196    9.999   1_556     S
Ti193     Ti190    9.999   1_456     S
Ti194     Ti195    9.999   .     S
Ti194     Ti197    9.999   .     S
Ti194     Ti191    9.999   1_455     S
Ti195     Ti190    9.999   1_455     S
Ti195     Ti196    9.999   .     S
Ti196     Ti197    9.999   .     S
Ti196     Ti193    9.999   1_554     S
Ti197     Ti192    9.999   1_554     S
Ce198     Er200    10.0   1_455     S
Ce198     Er199    10.0   .     S
Er199     Er200    9.999   1_455     S
Er200     Er199    9.999   1_655     S
Er200     Ce198    10.0   1_655     S
Er200     V206    10.0   .     S
V201     Er233    10.0   .     S
V201     V202    9.999   .     S
V201     V209    10.0   .     S
V201     V212    10.001   .     S
V202     Er230    10.0   .     S
V202     V203    10.0   .     S
V202     V205    10.001   .     S
V203     V204    9.999   .     S
V203     V209    10.001   .     S
V204     V205    10.0   .     S
V204     V207    10.001   .     S
V205     V206    9.999   .     S
V206     V207    10.0   .     S
V206     V211    10.001   .     S
V207     V208    9.999   .     S
V208     V211    10.0   .     S
V208     V210    10.001   .     S
V209     V210    9.999   .     S
V210     V212    10.0   .     S
V211     Er262    10.0   .     S
V211     V212    9.999   .     S
V212     Er259    10.0   .     S
Ce213     Ti241    10.0   .     S
Ce213     Er214    10.0   .     S
Ce213     Er215    10.0   1_554     S
Er214     Er215    9.999   1_554     S
Er215     Er214    9.999   1_556     S
Er215     Ce213    10.0   1_556     S
Ce216     Ti239    10.0   .     S
Ce216     Er217    10.0   .     S
Ce216     Er218    10.0   1_545     S
Er217     Er218    9.999   1_545     S
Er218     Er217    9.999   1_565     S
Er218     Ce216    10.0   1_565     S
Ce219     Ti238    10.0   .     S
Ce219     Er220    10.0   .     S
Ce219     Er221    10.0   1_545     S
Er220     Er221    9.999   1_545     S
Er221     Er220    9.999   1_565     S
Er221     Ce219    10.0   1_565     S
Ce222     Ti240    10.0   .     S
Ce222     Er223    10.0   .     S
Ce222     Er224    10.0   1_554     S
Er223     Er224    9.999   1_554     S
Er224     Er223    9.999   1_556     S
Er224     Ce222    10.0   1_556     S
Er224     V281    10.0   .     S
Ce225     Ti235    10.0   .     S
Ce225     Er226    10.0   .     S
Ce225     Er227    10.0   1_554     S
Er226     Er227    9.999   1_554     S
Er227     Er226    9.999   1_556     S
Er227     Ce225    10.0   1_556     S
Ce228     Ti234    10.0   .     S
Ce228     Er229    10.0   .     S
Ce228     Er230    10.0   1_554     S
Er229     Er230    9.999   1_554     S
Er230     Er229    9.999   1_556     S
Er230     Ce228    10.0   1_556     S
Ce231     Ti237    10.0   .     S
Ce231     Er232    10.0   .     S
Ce231     Er233    10.0   1_545     S
Er232     Er233    9.999   1_545     S
Er232     V282    10.0   .     S
Er233     Er232    9.999   1_565     S
Er233     Ce231    10.0   1_565     S
Ti234     Ti235    9.999   .     S
Ti234     Ti239    9.999   1_565     S
Ti234     Ti237    9.999   1_564     S
Ti235     Ti238    9.999   1_565     S
Ti235     Ti236    9.999   1_564     S
Ti236     Ti237    9.999   .     S
Ti236     Ti241    9.999   1_556     S
Ti236     Ti235    9.999   1_546     S
Ti236     Ce242    10.0   .     S
Ti237     Ti240    9.999   1_556     S
Ti237     Ti234    9.999   1_546     S
Ti238     Ti239    9.999   .     S
Ti238     Ti241    9.999   .     S
Ti238     Ti235    9.999   1_545     S
Ti239     Ti234    9.999   1_545     S
Ti239     Ti240    9.999   .     S
Ti240     Ti241    9.999   .     S
Ti240     Ti237    9.999   1_554     S
Ti241     Ti236    9.999   1_554     S
Ce242     Er243    10.0   .     S
Ce242     Er244    10.0   1_545     S
Er243     Er244    9.999   1_545     S
Er244     Er243    9.999   1_565     S
Er244     Ce242    10.0   1_565     S
Ce245     Ti273    10.0   .     S
Ce245     Er246    10.0   .     S
Ce245     Er247    10.0   1_455     S
Er246     Er247    9.999   1_455     S
Er247     Er246    9.999   1_655     S
Er247     Ce245    10.0   1_655     S
Er247     V287    10.0   .     S
Ce248     Ti271    10.0   .     S
Ce248     Er249    10.0   .     S
Ce248     Er250    10.0   1_545     S
Er249     Er250    9.999   1_545     S
Er250     Er249    9.999   1_565     S
Er250     Ce248    10.0   1_565     S
Ce251     Ti270    10.0   .     S
Ce251     Er252    10.0   .     S
Ce251     Er253    10.0   1_545     S
Er252     Er253    9.999   1_545     S
Er253     Er252    9.999   1_565     S
Er253     Ce251    10.0   1_565     S
Ce254     Ti272    10.0   .     S
Ce254     Er255    10.0   .     S
Ce254     Er256    10.0   1_455     S
Er255     Er256    9.999   1_455     S
Er256     Er255    9.999   1_655     S
Er256     Ce254    10.0   1_655     S
Ce257     Ti269    10.0   .     S
Ce257     Er258    10.0   .     S
Ce257     Er259    10.0   1_545     S
Er258     Er259    9.999   1_545     S
Er258     V288    10.0   .     S
Er259     Er258    9.999   1_565     S
Er259     Ce257    10.0   1_565     S
Ce260     Ti267    10.0   .     S
Ce260     Er261    10.0   .     S
Ce260     Er262    10.0   1_455     S
Er261     Er262    9.999   1_455     S
Er262     Er261    9.999   1_655     S
Er262     Ce260    10.0   1_655     S
Ce263     Ti266    10.0   .     S
Ce263     Er264    10.0   .     S
Ce263     Er265    10.0   1_455     S
Er264     Er265    9.999   1_455     S
Er265     Er264    9.999   1_655     S
Er265     Ce263    10.0   1_655     S
Ti266     Ti267    9.999   .     S
Ti266     Ti270    9.999   1_565     S
Ti266     Ti268    9.999   1_465     S
Ti267     Ti271    9.999   1_565     S
Ti267     Ti269    9.999   1_465     S
Ti268     Ti269    9.999   .     S
Ti268     Ti272    9.999   1_655     S
Ti268     Ti266    9.999   1_645     S
Ti268     Ce274    10.0   .     S
Ti269     Ti273    9.999   1_655     S
Ti269     Ti267    9.999   1_645     S
Ti270     Ti271    9.999   .     S
Ti270     Ti272    9.999   .     S
Ti270     Ti266    9.999   1_545     S
Ti271     Ti267    9.999   1_545     S
Ti271     Ti273    9.999   .     S
Ti272     Ti273    9.999   .     S
Ti272     Ti268    9.999   1_455     S
Ti273     Ti269    9.999   1_455     S
Ce274     Er275    10.0   .     S
Ce274     Er276    10.0   1_545     S
Er275     Er276    9.999   1_545     S
Er276     Er275    9.999   1_565     S
Er276     Ce274    10.0   1_565     S
V277     V278    9.999   .     S
V277     V286    10.0   .     S
V277     V287    10.001   .     S
V278     V280    10.0   .     S
V278     V281    10.001   .     S
V279     V280    9.999   .     S
V279     V281    10.0   .     S
V279     V283    10.001   .     S
V280     V286    10.001   .     S
V281     V282    9.999   .     S
V282     V283    10.0   .     S
V282     V288    10.001   .     S
V283     V284    9.999   .     S
V284     V288    10.0   .     S
V284     V285    10.001   .     S
V285     V286    9.999   .     S
V285     V287    10.0   .     S
V287     V288    9.999   .     S
