data_urva
_audit_creation_date              2020-02-04
_audit_creation_method            'Pymatgen'
_symmetry_space_group_name_H-M    'P1'
_symmetry_Int_Tables_number       1
loop_
_symmetry_equiv_pos_as_xyz
  x,y,z
_cell_length_a                    87.6609
_cell_length_b                    87.6609
_cell_length_c                    87.6609
_cell_angle_alpha                 90.0
_cell_angle_beta                 90.0
_cell_angle_gamma                 90.0
loop_
_atom_site_label
_atom_site_type_symbol
_atom_site_fract_x
_atom_site_fract_y
_atom_site_fract_z
Ce1     Ce     0.2533   0.4191   0.4191
Ce2     Ce     0.4191   0.2533   0.4191
Ti3     Ti     0.443   0.443   0.3623
Ti4     Ti     0.3623   0.443   0.443
Ti5     Ti     0.443   0.3623   0.443
Ce6     Ce     0.4191   0.4191   0.2533
Ce7     Ce     0.2533   0.5809   0.4191
Ce8     Ce     0.4191   0.5809   0.2533
Ti9     Ti     0.3623   0.557   0.443
Ti10     Ti     0.443   0.557   0.3623
Ti11     Ti     0.443   0.6377   0.443
Ce12     Ce     0.4191   0.7467   0.4191
Ce13     Ce     0.5809   0.2533   0.4191
Ce14     Ce     0.5809   0.4191   0.2533
Ti15     Ti     0.557   0.3623   0.443
Ti16     Ti     0.557   0.443   0.3623
Ti17     Ti     0.6377   0.443   0.443
Ce18     Ce     0.7467   0.4191   0.4191
Ce19     Ce     0.5809   0.5809   0.2533
Ti20     Ti     0.557   0.557   0.3623
Ti21     Ti     0.6377   0.557   0.443
Ti22     Ti     0.557   0.6377   0.443
Ce23     Ce     0.5809   0.7467   0.4191
Ce24     Ce     0.7467   0.5809   0.4191
Ce25     Ce     0.4191   0.2533   0.5809
Ce26     Ce     0.2533   0.4191   0.5809
Ti27     Ti     0.3623   0.443   0.557
Ti28     Ti     0.443   0.3623   0.557
Ti29     Ti     0.443   0.443   0.6377
Ce30     Ce     0.4191   0.4191   0.7467
Ce31     Ce     0.5809   0.2533   0.5809
Ti32     Ti     0.557   0.3623   0.557
Ti33     Ti     0.557   0.443   0.6377
Ti34     Ti     0.6377   0.443   0.557
Ce35     Ce     0.5809   0.4191   0.7467
Ce36     Ce     0.7467   0.4191   0.5809
Ti37     Ti     0.557   0.557   0.6377
Ti38     Ti     0.6377   0.557   0.557
Ti39     Ti     0.557   0.6377   0.557
Ce40     Ce     0.5809   0.5809   0.7467
Ce41     Ce     0.7467   0.5809   0.5809
Ce42     Ce     0.5809   0.7467   0.5809
Ce43     Ce     0.2533   0.5809   0.5809
Ti44     Ti     0.3623   0.557   0.557
Ti45     Ti     0.443   0.557   0.6377
Ti46     Ti     0.443   0.6377   0.557
Ce47     Ce     0.4191   0.5809   0.7467
Ce48     Ce     0.4191   0.7467   0.5809
Ce49     Ce     0.7533   0.9191   0.9191
Ce50     Ce     0.9191   0.7533   0.9191
Ti51     Ti     0.943   0.943   0.8623
Ti52     Ti     0.8623   0.943   0.943
Ti53     Ti     0.943   0.8623   0.943
Ce54     Ce     0.9191   0.9191   0.7533
Ce55     Ce     0.7533   0.0809   0.9191
Ce56     Ce     0.9191   0.0809   0.7533
Ti57     Ti     0.943   0.057   0.8623
Ti58     Ti     0.8623   0.057   0.943
Ti59     Ti     0.943   0.1377   0.943
Ce60     Ce     0.9191   0.2467   0.9191
Ce61     Ce     0.9191   0.7533   0.0809
Ce62     Ce     0.7533   0.9191   0.0809
Ti63     Ti     0.943   0.943   0.1377
Ti64     Ti     0.8623   0.943   0.057
Ti65     Ti     0.943   0.8623   0.057
Ce66     Ce     0.9191   0.9191   0.2467
Ce67     Ce     0.9191   0.2467   0.0809
Ti68     Ti     0.943   0.1377   0.057
Ti69     Ti     0.943   0.057   0.1377
Ti70     Ti     0.8623   0.057   0.057
Ce71     Ce     0.9191   0.0809   0.2467
Ce72     Ce     0.7533   0.0809   0.0809
Ce73     Ce     0.2467   0.9191   0.0809
Ti74     Ti     0.1377   0.943   0.057
Ti75     Ti     0.057   0.943   0.1377
Ti76     Ti     0.057   0.8623   0.057
Ce77     Ce     0.0809   0.9191   0.2467
Ce78     Ce     0.0809   0.7533   0.0809
Ce79     Ce     0.0809   0.2467   0.0809
Ce80     Ce     0.2467   0.0809   0.0809
Ti81     Ti     0.1377   0.057   0.057
Ti82     Ti     0.057   0.057   0.1377
Ti83     Ti     0.057   0.1377   0.057
Ce84     Ce     0.0809   0.0809   0.2467
Ce85     Ce     0.0809   0.7533   0.9191
Ce86     Ce     0.0809   0.9191   0.7533
Ti87     Ti     0.057   0.943   0.8623
Ti88     Ti     0.057   0.8623   0.943
Ti89     Ti     0.1377   0.943   0.943
Ce90     Ce     0.2467   0.9191   0.9191
Ce91     Ce     0.2467   0.0809   0.9191
Ti92     Ti     0.057   0.1377   0.943
Ti93     Ti     0.1377   0.057   0.943
Ti94     Ti     0.057   0.057   0.8623
Ce95     Ce     0.0809   0.2467   0.9191
Ce96     Ce     0.0809   0.0809   0.7533
Er97     Er     0.5611   0.8411   0.6417
Er98     Er     0.6417   0.8411   0.5611
Er99     Er     0.8411   0.5611   0.6417
Er100     Er     0.8411   0.6417   0.5611
Er101     Er     0.6417   0.5611   0.8411
Er102     Er     0.5611   0.6417   0.8411
Er103     Er     0.3583   0.8411   0.5611
Er104     Er     0.4389   0.8411   0.6417
Er105     Er     0.8411   0.5611   0.3583
Er106     Er     0.8411   0.6417   0.4389
Er107     Er     0.5611   0.3583   0.8411
Er108     Er     0.6417   0.4389   0.8411
Er109     Er     0.8411   0.3583   0.5611
Er110     Er     0.8411   0.4389   0.6417
Er111     Er     0.3583   0.8411   0.4389
Er112     Er     0.4389   0.8411   0.3583
Er113     Er     0.5611   0.8411   0.3583
Er114     Er     0.6417   0.8411   0.4389
Er115     Er     0.8411   0.4389   0.3583
Er116     Er     0.8411   0.3583   0.4389
Er117     Er     0.4389   0.3583   0.8411
Er118     Er     0.3583   0.4389   0.8411
Er119     Er     0.3583   0.5611   0.8411
Er120     Er     0.4389   0.6417   0.8411
Er121     Er     0.1589   0.5611   0.6417
Er122     Er     0.1589   0.6417   0.5611
Er123     Er     0.6417   0.1589   0.5611
Er124     Er     0.5611   0.1589   0.6417
Er125     Er     0.5611   0.6417   0.1589
Er126     Er     0.6417   0.5611   0.1589
Er127     Er     0.3583   0.5611   0.1589
Er128     Er     0.4389   0.6417   0.1589
Er129     Er     0.1589   0.5611   0.3583
Er130     Er     0.1589   0.6417   0.4389
Er131     Er     0.8583   0.3411   0.9389
Er132     Er     0.9389   0.3411   0.8583
Er133     Er     0.1417   0.3411   0.9389
Er134     Er     0.0611   0.3411   0.8583
Er135     Er     0.1417   0.3411   0.0611
Er136     Er     0.0611   0.3411   0.1417
Er137     Er     0.9389   0.3411   0.1417
Er138     Er     0.8583   0.3411   0.0611
Er139     Er     0.9389   0.6589   0.8583
Er140     Er     0.8583   0.6589   0.9389
V141     V     0.057   0.443   0.807
V142     V     0.057   0.557   0.807
V143     V     0.943   0.557   0.807
V144     V     0.943   0.443   0.807
V145     V     0.943   0.443   0.693
V146     V     0.943   0.557   0.693
V147     V     0.057   0.557   0.693
V148     V     0.057   0.443   0.693
V149     V     0.807   0.443   0.057
V150     V     0.807   0.557   0.057
V151     V     0.807   0.557   0.943
V152     V     0.807   0.443   0.943
V153     V     0.693   0.557   0.943
V154     V     0.693   0.443   0.943
V155     V     0.693   0.443   0.057
V156     V     0.693   0.557   0.057
Er157     Er     0.9389   0.6589   0.1417
Er158     Er     0.8583   0.6589   0.0611
Er159     Er     0.1417   0.6589   0.9389
Er160     Er     0.0611   0.6589   0.8583
V161     V     0.057   0.443   0.193
V162     V     0.057   0.557   0.193
V163     V     0.943   0.557   0.193
V164     V     0.943   0.443   0.193
V165     V     0.943   0.557   0.307
V166     V     0.943   0.443   0.307
V167     V     0.057   0.443   0.307
V168     V     0.057   0.557   0.307
Er169     Er     0.1417   0.6589   0.0611
Er170     Er     0.0611   0.6589   0.1417
V171     V     0.307   0.557   0.057
V172     V     0.307   0.443   0.057
V173     V     0.307   0.443   0.943
V174     V     0.307   0.557   0.943
V175     V     0.193   0.557   0.057
V176     V     0.193   0.443   0.057
V177     V     0.193   0.557   0.943
V178     V     0.193   0.443   0.943
Er179     Er     0.5611   0.1589   0.3583
Er180     Er     0.6417   0.1589   0.4389
Er181     Er     0.4389   0.3583   0.1589
Er182     Er     0.3583   0.4389   0.1589
Er183     Er     0.5611   0.3583   0.1589
Er184     Er     0.6417   0.4389   0.1589
Er185     Er     0.3411   0.9389   0.8583
Er186     Er     0.3411   0.8583   0.9389
Er187     Er     0.3411   0.9389   0.1417
Er188     Er     0.3411   0.8583   0.0611
Er189     Er     0.3411   0.1417   0.9389
Er190     Er     0.3411   0.0611   0.8583
Er191     Er     0.3411   0.0611   0.1417
Er192     Er     0.3411   0.1417   0.0611
Er193     Er     0.6589   0.8583   0.9389
Er194     Er     0.6589   0.9389   0.8583
V195     V     0.443   0.807   0.057
V196     V     0.557   0.807   0.057
V197     V     0.443   0.807   0.943
V198     V     0.557   0.807   0.943
V199     V     0.443   0.693   0.943
V200     V     0.557   0.693   0.943
V201     V     0.557   0.693   0.057
V202     V     0.443   0.693   0.057
V203     V     0.443   0.057   0.807
V204     V     0.557   0.057   0.807
V205     V     0.557   0.943   0.807
V206     V     0.443   0.943   0.807
V207     V     0.557   0.943   0.693
V208     V     0.443   0.943   0.693
V209     V     0.443   0.057   0.693
V210     V     0.557   0.057   0.693
Er211     Er     0.6589   0.1417   0.9389
Er212     Er     0.6589   0.0611   0.8583
Er213     Er     0.6589   0.9389   0.1417
Er214     Er     0.6589   0.8583   0.0611
V215     V     0.443   0.193   0.057
V216     V     0.557   0.193   0.057
V217     V     0.557   0.193   0.943
V218     V     0.443   0.193   0.943
V219     V     0.557   0.307   0.943
V220     V     0.443   0.307   0.943
V221     V     0.443   0.307   0.057
V222     V     0.557   0.307   0.057
Er223     Er     0.6589   0.0611   0.1417
Er224     Er     0.6589   0.1417   0.0611
V225     V     0.557   0.057   0.307
V226     V     0.443   0.057   0.307
V227     V     0.443   0.943   0.307
V228     V     0.557   0.943   0.307
V229     V     0.557   0.057   0.193
V230     V     0.443   0.057   0.193
V231     V     0.557   0.943   0.193
V232     V     0.443   0.943   0.193
Er233     Er     0.1589   0.3583   0.5611
Er234     Er     0.1589   0.4389   0.6417
Er235     Er     0.3583   0.1589   0.4389
Er236     Er     0.4389   0.1589   0.3583
Er237     Er     0.3583   0.1589   0.5611
Er238     Er     0.4389   0.1589   0.6417
Er239     Er     0.1589   0.3583   0.4389
Er240     Er     0.1589   0.4389   0.3583
Er241     Er     0.9389   0.8583   0.3411
Er242     Er     0.8583   0.9389   0.3411
Er243     Er     0.9389   0.1417   0.3411
Er244     Er     0.8583   0.0611   0.3411
Er245     Er     0.1417   0.9389   0.3411
Er246     Er     0.0611   0.8583   0.3411
Er247     Er     0.0611   0.1417   0.3411
Er248     Er     0.1417   0.0611   0.3411
Er249     Er     0.8583   0.9389   0.6589
Er250     Er     0.9389   0.8583   0.6589
V251     V     0.807   0.057   0.443
V252     V     0.807   0.057   0.557
V253     V     0.807   0.943   0.557
V254     V     0.807   0.943   0.443
V255     V     0.693   0.943   0.443
V256     V     0.693   0.943   0.557
V257     V     0.693   0.057   0.557
V258     V     0.693   0.057   0.443
V259     V     0.057   0.807   0.443
V260     V     0.057   0.807   0.557
V261     V     0.943   0.807   0.557
V262     V     0.943   0.807   0.443
V263     V     0.943   0.693   0.557
V264     V     0.943   0.693   0.443
V265     V     0.057   0.693   0.443
V266     V     0.057   0.693   0.557
Er267     Er     0.1417   0.9389   0.6589
Er268     Er     0.0611   0.8583   0.6589
V269     V     0.193   0.057   0.443
V270     V     0.193   0.057   0.557
V271     V     0.193   0.943   0.557
V272     V     0.193   0.943   0.443
V273     V     0.307   0.943   0.557
V274     V     0.307   0.943   0.443
V275     V     0.307   0.057   0.443
V276     V     0.307   0.057   0.557
Er277     Er     0.0611   0.1417   0.6589
Er278     Er     0.1417   0.0611   0.6589
Er279     Er     0.9389   0.1417   0.6589
Er280     Er     0.8583   0.0611   0.6589
V281     V     0.057   0.193   0.557
V282     V     0.057   0.193   0.443
V283     V     0.943   0.193   0.557
V284     V     0.943   0.193   0.443
V285     V     0.057   0.307   0.557
V286     V     0.057   0.307   0.443
V287     V     0.943   0.307   0.557
V288     V     0.943   0.307   0.443
loop_
_geom_bond_atom_site_label_1
_geom_bond_atom_site_label_2
_geom_bond_distance
_geom_bond_site_symmetry_2
_ccdc_geom_bond_type
Ce1     Ti4    10.0   .     S
Ce1     Er239    10.0   .     S
Ce1     Er240    10.0   .     S
Ce2     Ti5    10.0   .     S
Ce2     Er235    10.0   .     S
Ce2     Er236    10.0   .     S
Ti3     Ti4    10.0   .     S
Ti3     Ti5    10.0   .     S
Ti3     Ce6    10.0   .     S
Ti3     Ti10    10.0   .     S
Ti3     Ti16    10.0   .     S
Ti4     Ti5    10.0   .     S
Ti4     Ti27    10.0   .     S
Ti4     Ti9    10.0   .     S
Ti5     Ti28    10.0   .     S
Ti5     Ti15    10.0   .     S
Ce6     Er181    10.0   .     S
Ce6     Er182    10.0   .     S
Ce7     Ti9    10.0   .     S
Ce7     Er129    10.0   .     S
Ce7     Er130    10.0   .     S
Ce8     Ti10    10.0   .     S
Ce8     Er127    10.0   .     S
Ce8     Er128    10.0   .     S
Ti9     Ti11    10.0   .     S
Ti9     Ti10    10.0   .     S
Ti9     Ti44    10.0   .     S
Ti10     Ti11    10.0   .     S
Ti10     Ti20    10.0   .     S
Ti11     Ce12    10.0   .     S
Ti11     Ti46    10.0   .     S
Ti11     Ti22    10.0   .     S
Ce12     Er111    10.0   .     S
Ce12     Er112    10.0   .     S
Ce13     Ti15    10.0   .     S
Ce13     Er179    10.0   .     S
Ce13     Er180    10.0   .     S
Ce14     Ti16    10.0   .     S
Ce14     Er183    10.0   .     S
Ce14     Er184    10.0   .     S
Ti15     Ti17    10.0   .     S
Ti15     Ti16    10.0   .     S
Ti15     Ti32    10.0   .     S
Ti16     Ti17    10.0   .     S
Ti16     Ti20    10.0   .     S
Ti17     Ce18    10.0   .     S
Ti17     Ti34    10.0   .     S
Ti17     Ti21    10.0   .     S
Ce18     Er115    10.0   .     S
Ce18     Er116    10.0   .     S
Ce19     Ti20    10.0   .     S
Ce19     Er125    10.0   .     S
Ce19     Er126    10.0   .     S
Ti20     Ti21    10.0   .     S
Ti20     Ti22    10.0   .     S
Ti21     Ti22    10.0   .     S
Ti21     Ce24    10.0   .     S
Ti21     Ti38    10.0   .     S
Ti22     Ce23    10.0   .     S
Ti22     Ti39    10.0   .     S
Ce23     Er113    10.0   .     S
Ce23     Er114    10.0   .     S
Ce24     Er105    10.0   .     S
Ce24     Er106    10.0   .     S
Ce25     Ti28    10.0   .     S
Ce25     Er237    10.0   .     S
Ce25     Er238    10.0   .     S
Ce26     Ti27    10.0   .     S
Ce26     Er233    10.0   .     S
Ce26     Er234    10.0   .     S
Ti27     Ti29    10.0   .     S
Ti27     Ti28    10.0   .     S
Ti27     Ti44    10.0   .     S
Ti28     Ti29    10.0   .     S
Ti28     Ti32    10.0   .     S
Ti29     Ce30    10.0   .     S
Ti29     Ti45    10.0   .     S
Ti29     Ti33    10.0   .     S
Ce30     Er117    10.0   .     S
Ce30     Er118    10.0   .     S
Ce31     Ti32    10.0   .     S
Ce31     Er123    10.0   .     S
Ce31     Er124    10.0   .     S
Ti32     Ti33    10.0   .     S
Ti32     Ti34    10.0   .     S
Ti33     Ti34    10.0   .     S
Ti33     Ce35    10.0   .     S
Ti33     Ti37    10.0   .     S
Ti34     Ce36    10.0   .     S
Ti34     Ti38    10.0   .     S
Ce35     Er107    10.0   .     S
Ce35     Er108    10.0   .     S
Ce36     Er109    10.0   .     S
Ce36     Er110    10.0   .     S
Ti37     Ti39    10.0   .     S
Ti37     Ti38    10.0   .     S
Ti37     Ce40    10.0   .     S
Ti37     Ti45    10.0   .     S
Ti38     Ti39    10.0   .     S
Ti38     Ce41    10.0   .     S
Ti39     Ce42    10.0   .     S
Ti39     Ti46    10.0   .     S
Ce40     Er101    10.0   .     S
Ce40     Er102    10.0   .     S
Ce41     Er99    10.0   .     S
Ce41     Er100    10.0   .     S
Ce42     Er97    10.0   .     S
Ce42     Er98    10.0   .     S
Ce43     Ti44    10.0   .     S
Ce43     Er121    10.0   .     S
Ce43     Er122    10.0   .     S
Ti44     Ti45    10.0   .     S
Ti44     Ti46    10.0   .     S
Ti45     Ti46    10.0   .     S
Ti45     Ce47    10.0   .     S
Ti46     Ce48    10.0   .     S
Ce47     Er119    10.0   .     S
Ce47     Er120    10.0   .     S
Ce48     Er103    10.0   .     S
Ce48     Er104    10.0   .     S
Ce49     Ti52    10.0   .     S
Ce49     Er193    10.0   .     S
Ce49     Er194    10.0   .     S
Ce50     Ti53    10.0   .     S
Ce50     Er139    10.0   .     S
Ce50     Er140    10.0   .     S
Ti51     Ti52    10.0   .     S
Ti51     Ti53    10.0   .     S
Ti51     Ce54    10.0   .     S
Ti51     Ti57    10.0   1_565     S
Ti51     Ti87    10.0   1_655     S
Ti52     Ti53    10.0   .     S
Ti52     Ti64    10.0   1_556     S
Ti52     Ti58    10.0   1_565     S
Ti53     Ti65    10.0   1_556     S
Ti53     Ti88    10.0   1_655     S
Ce54     Er249    10.0   .     S
Ce54     Er250    10.0   .     S
Ce55     Ti58    10.0   .     S
Ce55     Er211    10.0   .     S
Ce55     Er212    10.0   .     S
Ce56     Ti57    10.0   .     S
Ce56     Er279    10.0   .     S
Ce56     Er280    10.0   .     S
Ti57     Ti51    10.0   1_545     S
Ti57     Ti58    10.0   .     S
Ti57     Ti59    10.0   .     S
Ti57     Ti94    10.0   1_655     S
Ti58     Ti52    10.0   1_545     S
Ti58     Ti59    10.0   .     S
Ti58     Ti70    10.0   1_556     S
Ti59     Ce60    10.0   .     S
Ti59     Ti68    10.0   1_556     S
Ti59     Ti92    10.0   1_655     S
Ce60     Er131    10.0   .     S
Ce60     Er132    10.0   .     S
Ce61     Ti65    10.0   .     S
Ce61     Er157    10.0   .     S
Ce61     Er158    10.0   .     S
Ce62     Ti64    10.0   .     S
Ce62     Er213    10.0   .     S
Ce62     Er214    10.0   .     S
Ti63     Ti65    10.0   .     S
Ti63     Ti64    10.0   .     S
Ti63     Ce66    10.0   .     S
Ti63     Ti69    10.0   1_565     S
Ti63     Ti75    10.0   1_655     S
Ti64     Ti52    10.0   1_554     S
Ti64     Ti65    10.0   .     S
Ti64     Ti70    10.0   1_565     S
Ti65     Ti53    10.0   1_554     S
Ti65     Ti76    10.0   1_655     S
Ce66     Er241    10.0   .     S
Ce66     Er242    10.0   .     S
Ce67     Ti68    10.0   .     S
Ce67     Er137    10.0   .     S
Ce67     Er138    10.0   .     S
Ti68     Ti59    10.0   1_554     S
Ti68     Ti70    10.0   .     S
Ti68     Ti69    10.0   .     S
Ti68     Ti83    10.0   1_655     S
Ti69     Ti63    10.0   1_545     S
Ti69     Ti70    10.0   .     S
Ti69     Ce71    10.0   .     S
Ti69     Ti82    10.0   1_655     S
Ti70     Ti58    10.0   1_554     S
Ti70     Ti64    10.0   1_545     S
Ti70     Ce72    10.0   .     S
Ce71     Er243    10.0   .     S
Ce71     Er244    10.0   .     S
Ce72     Er223    10.0   .     S
Ce72     Er224    10.0   .     S
Ce73     Ti74    10.0   .     S
Ce73     Er187    10.0   .     S
Ce73     Er188    10.0   .     S
Ti74     Ti76    10.0   .     S
Ti74     Ti75    10.0   .     S
Ti74     Ti81    10.0   1_565     S
Ti74     Ti89    10.0   1_554     S
Ti75     Ti63    10.0   1_455     S
Ti75     Ti76    10.0   .     S
Ti75     Ce77    10.0   .     S
Ti75     Ti82    10.0   1_565     S
Ti76     Ti65    10.0   1_455     S
Ti76     Ce78    10.0   .     S
Ti76     Ti88    10.0   1_554     S
Ce77     Er245    10.0   .     S
Ce77     Er246    10.0   .     S
Ce78     Er169    10.0   .     S
Ce78     Er170    10.0   .     S
Ce79     Ti83    10.0   .     S
Ce79     Er135    10.0   .     S
Ce79     Er136    10.0   .     S
Ce80     Ti81    10.0   .     S
Ce80     Er191    10.0   .     S
Ce80     Er192    10.0   .     S
Ti81     Ti74    10.0   1_545     S
Ti81     Ti82    10.0   .     S
Ti81     Ti83    10.0   .     S
Ti81     Ti93    10.0   1_554     S
Ti82     Ti69    10.0   1_455     S
Ti82     Ti75    10.0   1_545     S
Ti82     Ti83    10.0   .     S
Ti82     Ce84    10.0   .     S
Ti83     Ti68    10.0   1_455     S
Ti83     Ti92    10.0   1_554     S
Ce84     Er247    10.0   .     S
Ce84     Er248    10.0   .     S
Ce85     Ti88    10.0   .     S
Ce85     Er159    10.0   .     S
Ce85     Er160    10.0   .     S
Ce86     Ti87    10.0   .     S
Ce86     Er267    10.0   .     S
Ce86     Er268    10.0   .     S
Ti87     Ti51    10.0   1_455     S
Ti87     Ti88    10.0   .     S
Ti87     Ti89    10.0   .     S
Ti87     Ti94    10.0   1_565     S
Ti88     Ti53    10.0   1_455     S
Ti88     Ti89    10.0   .     S
Ti88     Ti76    10.0   1_556     S
Ti89     Ce90    10.0   .     S
Ti89     Ti74    10.0   1_556     S
Ti89     Ti93    10.0   1_565     S
Ce90     Er185    10.0   .     S
Ce90     Er186    10.0   .     S
Ce91     Ti93    10.0   .     S
Ce91     Er189    10.0   .     S
Ce91     Er190    10.0   .     S
Ti92     Ti59    10.0   1_455     S
Ti92     Ti94    10.0   .     S
Ti92     Ti93    10.0   .     S
Ti92     Ce95    10.0   .     S
Ti92     Ti83    10.0   1_556     S
Ti93     Ti89    10.0   1_545     S
Ti93     Ti94    10.0   .     S
Ti93     Ti81    10.0   1_556     S
Ti94     Ti57    10.0   1_455     S
Ti94     Ti87    10.0   1_545     S
Ti94     Ce96    10.0   .     S
Ce95     Er133    10.0   .     S
Ce95     Er134    10.0   .     S
Ce96     Er277    10.0   .     S
Ce96     Er278    10.0   .     S
Er97     Er98    10.0   .     S
Er97     V207    10.0   .     S
Er98     V256    10.0   .     S
Er99     Er100    10.0   .     S
Er99     V146    10.0   .     S
Er100     V263    10.0   .     S
Er101     Er102    10.0   .     S
Er101     V153    10.0   .     S
Er102     V200    10.0   .     S
Er103     Er104    10.0   .     S
Er103     V273    10.0   .     S
Er104     V208    10.0   .     S
Er105     Er106    10.0   .     S
Er105     V165    10.0   .     S
Er106     V264    10.0   .     S
Er107     Er108    10.0   .     S
Er107     V219    10.0   .     S
Er108     V154    10.0   .     S
Er109     Er110    10.0   .     S
Er109     V287    10.0   .     S
Er110     V145    10.0   .     S
Er111     Er112    10.0   .     S
Er111     V274    10.0   .     S
Er112     V227    10.0   .     S
Er113     Er114    10.0   .     S
Er113     V228    10.0   .     S
Er114     V255    10.0   .     S
Er115     Er116    10.0   .     S
Er115     V166    10.0   .     S
Er116     V288    10.0   .     S
Er117     Er118    10.0   .     S
Er117     V220    10.0   .     S
Er118     V173    10.0   .     S
Er119     Er120    10.0   .     S
Er119     V174    10.0   .     S
Er120     V199    10.0   .     S
Er121     Er122    10.0   .     S
Er121     V147    10.0   .     S
Er122     V266    10.0   .     S
Er123     Er124    10.0   .     S
Er123     V257    10.0   .     S
Er124     V210    10.0   .     S
Er125     Er126    10.0   .     S
Er125     V201    10.0   .     S
Er126     V156    10.0   .     S
Er127     Er128    10.0   .     S
Er127     V171    10.0   .     S
Er128     V202    10.0   .     S
Er129     Er130    10.0   .     S
Er129     V168    10.0   .     S
Er130     V265    10.0   .     S
Er131     Er132    10.0   .     S
Er131     V152    10.0   .     S
Er132     V144    10.0   .     S
Er133     Er134    10.0   .     S
Er133     V178    10.0   .     S
Er134     V141    10.0   .     S
Er135     Er136    10.0   .     S
Er135     V176    10.0   .     S
Er136     V161    10.0   .     S
Er137     Er138    10.0   .     S
Er137     V164    10.0   .     S
Er138     V149    10.0   .     S
Er139     Er140    10.0   .     S
Er139     V143    10.0   .     S
Er140     V151    10.0   .     S
V141     V142    10.0   .     S
V141     V148    10.0   .     S
V141     V144    10.0   1_455     S
V142     Er160    10.0   .     S
V142     V147    10.0   .     S
V142     V143    10.0   1_455     S
V143     V144    10.0   .     S
V143     V146    10.0   .     S
V143     V142    10.0   1_655     S
V144     V141    10.0   1_655     S
V144     V145    10.0   .     S
V145     V146    10.0   .     S
V145     V148    10.0   1_655     S
V146     V147    10.0   1_655     S
V147     V146    10.0   1_455     S
V147     V148    10.0   .     S
V148     V145    10.0   1_455     S
V148     Er234    10.0   .     S
V149     V150    10.0   .     S
V149     V155    10.0   .     S
V149     V152    10.0   1_554     S
V150     Er158    10.0   .     S
V150     V156    10.0   .     S
V150     V151    10.0   1_554     S
V151     V152    10.0   .     S
V151     V153    10.0   .     S
V151     V150    10.0   1_556     S
V152     V149    10.0   1_556     S
V152     V154    10.0   .     S
V153     V154    10.0   .     S
V153     V156    10.0   1_556     S
V154     V155    10.0   1_556     S
V155     V154    10.0   1_554     S
V155     Er184    10.0   .     S
V155     V156    10.0   .     S
V156     V153    10.0   1_554     S
Er157     Er158    10.0   .     S
Er157     V163    10.0   .     S
Er159     Er160    10.0   .     S
Er159     V177    10.0   .     S
V161     V162    10.0   .     S
V161     V164    10.0   1_455     S
V161     V167    10.0   .     S
V162     Er170    10.0   .     S
V162     V163    10.0   1_455     S
V162     V168    10.0   .     S
V163     V164    10.0   .     S
V163     V162    10.0   1_655     S
V163     V165    10.0   .     S
V164     V161    10.0   1_655     S
V164     V166    10.0   .     S
V165     V166    10.0   .     S
V165     V168    10.0   1_655     S
V166     V167    10.0   1_655     S
V167     V166    10.0   1_455     S
V167     Er240    10.0   .     S
V167     V168    10.0   .     S
V168     V165    10.0   1_455     S
Er169     Er170    10.0   .     S
Er169     V175    10.0   .     S
V171     V172    10.0   .     S
V171     V175    10.0   .     S
V171     V174    10.0   1_554     S
V172     Er182    10.0   .     S
V172     V176    10.0   .     S
V172     V173    10.0   1_554     S
V173     V174    10.0   .     S
V173     V178    10.0   .     S
V173     V172    10.0   1_556     S
V174     V171    10.0   1_556     S
V174     V177    10.0   .     S
V175     V176    10.0   .     S
V175     V177    10.0   1_554     S
V176     V178    10.0   1_554     S
V177     V178    10.0   .     S
V177     V175    10.0   1_556     S
V178     V176    10.0   1_556     S
Er179     Er180    10.0   .     S
Er179     V225    10.0   .     S
Er180     V258    10.0   .     S
Er181     Er182    10.0   .     S
Er181     V221    10.0   .     S
Er183     Er184    10.0   .     S
Er183     V222    10.0   .     S
Er185     Er186    10.0   .     S
Er185     V206    10.0   .     S
Er186     V197    10.0   .     S
Er187     Er188    10.0   .     S
Er187     V232    10.0   .     S
Er188     V195    10.0   .     S
Er189     Er190    10.0   .     S
Er189     V218    10.0   .     S
Er190     V203    10.0   .     S
Er191     Er192    10.0   .     S
Er191     V230    10.0   .     S
Er192     V215    10.0   .     S
Er193     Er194    10.0   .     S
Er193     V198    10.0   .     S
Er194     V205    10.0   .     S
V195     V196    10.0   .     S
V195     V202    10.0   .     S
V195     V197    10.0   1_554     S
V196     Er214    10.0   .     S
V196     V201    10.0   .     S
V196     V198    10.0   1_554     S
V197     V198    10.0   .     S
V197     V199    10.0   .     S
V197     V195    10.0   1_556     S
V198     V196    10.0   1_556     S
V198     V200    10.0   .     S
V199     V200    10.0   .     S
V199     V202    10.0   1_556     S
V200     V201    10.0   1_556     S
V201     V200    10.0   1_554     S
V201     V202    10.0   .     S
V202     V199    10.0   1_554     S
V203     V204    10.0   .     S
V203     V209    10.0   .     S
V203     V206    10.0   1_545     S
V204     Er212    10.0   .     S
V204     V210    10.0   .     S
V204     V205    10.0   1_545     S
V205     V206    10.0   .     S
V205     V207    10.0   .     S
V205     V204    10.0   1_565     S
V206     V203    10.0   1_565     S
V206     V208    10.0   .     S
V207     V208    10.0   .     S
V207     V210    10.0   1_565     S
V208     V209    10.0   1_565     S
V209     V208    10.0   1_545     S
V209     Er238    10.0   .     S
V209     V210    10.0   .     S
V210     V207    10.0   1_545     S
Er211     Er212    10.0   .     S
Er211     V217    10.0   .     S
Er213     Er214    10.0   .     S
Er213     V231    10.0   .     S
V215     V216    10.0   .     S
V215     V218    10.0   1_554     S
V215     V221    10.0   .     S
V216     Er224    10.0   .     S
V216     V217    10.0   1_554     S
V216     V222    10.0   .     S
V217     V218    10.0   .     S
V217     V216    10.0   1_556     S
V217     V219    10.0   .     S
V218     V215    10.0   1_556     S
V218     V220    10.0   .     S
V219     V220    10.0   .     S
V219     V222    10.0   1_556     S
V220     V221    10.0   1_556     S
V221     V220    10.0   1_554     S
V221     V222    10.0   .     S
V222     V219    10.0   1_554     S
Er223     Er224    10.0   .     S
Er223     V229    10.0   .     S
V225     V226    10.0   .     S
V225     V229    10.0   .     S
V225     V228    10.0   1_545     S
V226     Er236    10.0   .     S
V226     V230    10.0   .     S
V226     V227    10.0   1_545     S
V227     V228    10.0   .     S
V227     V232    10.0   .     S
V227     V226    10.0   1_565     S
V228     V225    10.0   1_565     S
V228     V231    10.0   .     S
V229     V230    10.0   .     S
V229     V231    10.0   1_545     S
V230     V232    10.0   1_545     S
V231     V232    10.0   .     S
V231     V229    10.0   1_565     S
V232     V230    10.0   1_565     S
Er233     Er234    10.0   .     S
Er233     V285    10.0   .     S
Er235     Er236    10.0   .     S
Er235     V275    10.0   .     S
Er237     Er238    10.0   .     S
Er237     V276    10.0   .     S
Er239     Er240    10.0   .     S
Er239     V286    10.0   .     S
Er241     Er242    10.0   .     S
Er241     V262    10.0   .     S
Er242     V254    10.0   .     S
Er243     Er244    10.0   .     S
Er243     V284    10.0   .     S
Er244     V251    10.0   .     S
Er245     Er246    10.0   .     S
Er245     V272    10.0   .     S
Er246     V259    10.0   .     S
Er247     Er248    10.0   .     S
Er247     V282    10.0   .     S
Er248     V269    10.0   .     S
Er249     Er250    10.0   .     S
Er249     V253    10.0   .     S
Er250     V261    10.0   .     S
V251     V252    10.0   .     S
V251     V258    10.0   .     S
V251     V254    10.0   1_545     S
V252     Er280    10.0   .     S
V252     V257    10.0   .     S
V252     V253    10.0   1_545     S
V253     V254    10.0   .     S
V253     V256    10.0   .     S
V253     V252    10.0   1_565     S
V254     V251    10.0   1_565     S
V254     V255    10.0   .     S
V255     V256    10.0   .     S
V255     V258    10.0   1_565     S
V256     V257    10.0   1_565     S
V257     V256    10.0   1_545     S
V257     V258    10.0   .     S
V258     V255    10.0   1_545     S
V259     V260    10.0   .     S
V259     V265    10.0   .     S
V259     V262    10.0   1_455     S
V260     Er268    10.0   .     S
V260     V266    10.0   .     S
V260     V261    10.0   1_455     S
V261     V262    10.0   .     S
V261     V263    10.0   .     S
V261     V260    10.0   1_655     S
V262     V259    10.0   1_655     S
V262     V264    10.0   .     S
V263     V264    10.0   .     S
V263     V266    10.0   1_655     S
V264     V265    10.0   1_655     S
V265     V264    10.0   1_455     S
V265     V266    10.0   .     S
V266     V263    10.0   1_455     S
Er267     Er268    10.0   .     S
Er267     V271    10.0   .     S
V269     V270    10.0   .     S
V269     V272    10.0   1_545     S
V269     V275    10.0   .     S
V270     Er278    10.0   .     S
V270     V271    10.0   1_545     S
V270     V276    10.0   .     S
V271     V272    10.0   .     S
V271     V270    10.0   1_565     S
V271     V273    10.0   .     S
V272     V269    10.0   1_565     S
V272     V274    10.0   .     S
V273     V274    10.0   .     S
V273     V276    10.0   1_565     S
V274     V275    10.0   1_565     S
V275     V274    10.0   1_545     S
V275     V276    10.0   .     S
V276     V273    10.0   1_545     S
Er277     Er278    10.0   .     S
Er277     V281    10.0   .     S
Er279     Er280    10.0   .     S
Er279     V283    10.0   .     S
V281     V282    10.0   .     S
V281     V283    10.0   1_455     S
V281     V285    10.0   .     S
V282     V284    10.0   1_455     S
V282     V286    10.0   .     S
V283     V284    10.0   .     S
V283     V281    10.0   1_655     S
V283     V287    10.0   .     S
V284     V282    10.0   1_655     S
V284     V288    10.0   .     S
V285     V286    10.0   .     S
V285     V287    10.0   1_455     S
V286     V288    10.0   1_455     S
V287     V288    10.0   .     S
V287     V285    10.0   1_655     S
V288     V286    10.0   1_655     S
