data_uto
_audit_creation_date              2020-02-04
_audit_creation_method            'Pymatgen'
_symmetry_space_group_name_H-M    'P1'
_symmetry_Int_Tables_number       1
loop_
_symmetry_equiv_pos_as_xyz
  x,y,z
_cell_length_a                    36.3063
_cell_length_b                    36.3063
_cell_length_c                    50.3609
_cell_angle_alpha                 90.0
_cell_angle_beta                 90.0
_cell_angle_gamma                 90.0
loop_
_atom_site_label
_atom_site_type_symbol
_atom_site_fract_x
_atom_site_fract_y
_atom_site_fract_z
V1     V     0.7833   0.3728   0.712
V2     V     0.7167   0.1272   0.788
V3     V     0.7167   0.8728   0.712
V4     V     0.7833   0.6272   0.788
V5     V     0.1228   0.4667   0.038
V6     V     0.8772   0.5333   0.962
V7     V     0.6228   0.5333   0.038
V8     V     0.3772   0.4667   0.962
V9     V     0.2833   0.6272   0.712
V10     V     0.2167   0.8728   0.788
V11     V     0.2167   0.1272   0.712
V12     V     0.2833   0.3728   0.788
V13     V     0.6228   0.4667   0.462
V14     V     0.3772   0.5333   0.538
V15     V     0.8772   0.4667   0.538
V16     V     0.1228   0.5333   0.462
V17     V     0.2833   0.1272   0.288
V18     V     0.2167   0.3728   0.212
V19     V     0.2833   0.8728   0.212
V20     V     0.2167   0.6272   0.288
V21     V     0.8772   0.0333   0.038
V22     V     0.1228   0.9667   0.962
V23     V     0.3772   0.9667   0.038
V24     V     0.6228   0.0333   0.962
V25     V     0.1228   0.0333   0.538
V26     V     0.8772   0.9667   0.462
V27     V     0.6228   0.9667   0.538
V28     V     0.3772   0.0333   0.462
V29     V     0.7167   0.3728   0.288
V30     V     0.7833   0.1272   0.212
V31     V     0.7833   0.8728   0.288
V32     V     0.7167   0.6272   0.212
loop_
_geom_bond_atom_site_label_1
_geom_bond_atom_site_label_2
_geom_bond_distance
_geom_bond_site_symmetry_2
_ccdc_geom_bond_type
V1     V2    10.0   .     S
V1     V4    10.0   .     S
V1     V15    10.0   .     S
V2     V3    10.0   1_545     S
V2     V24    10.0   .     S
V3     V4    10.0   .     S
V3     V2    10.0   1_565     S
V3     V27    10.0   .     S
V4     V6    10.0   .     S
V5     V6    10.0   1_454     S
V5     V8    10.0   1_554     S
V5     V18    10.0   .     S
V6     V5    10.0   1_656     S
V6     V7    10.0   1_556     S
V7     V8    10.0   1_554     S
V7     V6    10.0   1_554     S
V7     V32    10.0   .     S
V8     V7    10.0   1_556     S
V8     V5    10.0   1_556     S
V8     V12    10.0   .     S
V9     V10    10.0   .     S
V9     V12    10.0   .     S
V9     V14    10.0   .     S
V10     V11    10.0   1_565     S
V10     V22    10.0   .     S
V11     V12    10.0   .     S
V11     V10    10.0   1_545     S
V11     V25    10.0   .     S
V13     V14    10.0   .     S
V13     V15    10.0   .     S
V13     V29    10.0   .     S
V14     V16    10.0   .     S
V15     V16    10.0   1_655     S
V16     V15    10.0   1_455     S
V16     V20    10.0   .     S
V17     V18    10.0   .     S
V17     V19    10.0   1_545     S
V17     V28    10.0   .     S
V18     V20    10.0   .     S
V19     V20    10.0   .     S
V19     V17    10.0   1_565     S
V19     V23    10.0   .     S
V21     V22    10.0   1_644     S
V21     V24    10.0   1_554     S
V21     V30    10.0   .     S
V22     V21    10.0   1_466     S
V22     V23    10.0   1_556     S
V23     V24    10.0   1_564     S
V23     V22    10.0   1_554     S
V24     V21    10.0   1_556     S
V24     V23    10.0   1_546     S
V25     V26    10.0   1_445     S
V25     V28    10.0   .     S
V26     V25    10.0   1_665     S
V26     V27    10.0   .     S
V26     V31    10.0   .     S
V27     V28    10.0   1_565     S
V28     V27    10.0   1_545     S
V29     V30    10.0   .     S
V29     V32    10.0   .     S
V30     V31    10.0   1_545     S
V31     V32    10.0   .     S
V31     V30    10.0   1_565     S
