data_vvia
_audit_creation_date              2020-02-04
_audit_creation_method            'Pymatgen'
_symmetry_space_group_name_H-M    'P1'
_symmetry_Int_Tables_number       1
loop_
_symmetry_equiv_pos_as_xyz
  x,y,z
_cell_length_a                    96.5677
_cell_length_b                    96.5677
_cell_length_c                    96.5677
_cell_angle_alpha                 90.0
_cell_angle_beta                 90.0
_cell_angle_gamma                 90.0
loop_
_atom_site_label
_atom_site_type_symbol
_atom_site_fract_x
_atom_site_fract_y
_atom_site_fract_z
Ti1     Ti     0.5732   0.2488   0.5
Ti2     Ti     0.5   0.2488   0.5732
Ti3     Ti     0.5   0.2488   0.4268
Ti4     Ti     0.4268   0.2488   0.5
Ti5     Ti     0.2488   0.5732   0.5
Ti6     Ti     0.2488   0.5   0.5732
Ti7     Ti     0.2488   0.5   0.4268
Ti8     Ti     0.2488   0.4268   0.5
Ti9     Ti     0.5732   0.7512   0.5
Ti10     Ti     0.5   0.7512   0.5732
Ti11     Ti     0.5   0.7512   0.4268
Ti12     Ti     0.4268   0.7512   0.5
Ti13     Ti     0.7512   0.5732   0.5
Ti14     Ti     0.7512   0.5   0.5732
Ti15     Ti     0.7512   0.5   0.4268
Ti16     Ti     0.7512   0.4268   0.5
Ti17     Ti     0.5   0.4268   0.2488
Ti18     Ti     0.4268   0.5   0.2488
Ti19     Ti     0.5   0.5732   0.2488
Ti20     Ti     0.5732   0.5   0.2488
Ti21     Ti     0.5732   0.5   0.7512
Ti22     Ti     0.5   0.5732   0.7512
Ti23     Ti     0.4268   0.5   0.7512
Ti24     Ti     0.5   0.4268   0.7512
Ti25     Ti     0.0   0.7488   0.9268
Ti26     Ti     0.9268   0.7488   0.0
Ti27     Ti     0.0   0.7488   0.0732
Ti28     Ti     0.0732   0.7488   0.0
Ti29     Ti     0.7488   0.9268   0.0
Ti30     Ti     0.7488   0.0   0.9268
Ti31     Ti     0.7488   0.0   0.0732
Ti32     Ti     0.7488   0.0732   0.0
Ti33     Ti     0.9268   0.2512   0.0
Ti34     Ti     0.0   0.2512   0.9268
Ti35     Ti     0.0   0.2512   0.0732
Ti36     Ti     0.0732   0.2512   0.0
Ti37     Ti     0.2512   0.0   0.9268
Ti38     Ti     0.2512   0.9268   0.0
Ti39     Ti     0.2512   0.0   0.0732
Ti40     Ti     0.2512   0.0732   0.0
Ti41     Ti     0.0   0.9268   0.7488
Ti42     Ti     0.9268   0.0   0.7488
Ti43     Ti     0.0732   0.0   0.7488
Ti44     Ti     0.0   0.0732   0.7488
Ti45     Ti     0.9268   0.0   0.2512
Ti46     Ti     0.0   0.9268   0.2512
Ti47     Ti     0.0   0.0732   0.2512
Ti48     Ti     0.0732   0.0   0.2512
Ce49     Ce     0.75   0.1768   0.0
Ce50     Ce     0.1768   0.75   0.0
Ce51     Ce     0.25   0.1768   0.0
Ce52     Ce     0.1768   0.25   0.0
Ce53     Ce     0.0   0.75   0.1768
Ce54     Ce     0.75   0.0   0.1768
Ce55     Ce     0.0   0.1768   0.75
Ce56     Ce     0.1768   0.0   0.75
Ce57     Ce     0.25   0.0   0.1768
Ce58     Ce     0.1768   0.0   0.25
Ce59     Ce     0.25   0.8232   0.0
Ce60     Ce     0.8232   0.75   0.0
Ce61     Ce     0.75   0.8232   0.0
Ce62     Ce     0.8232   0.25   0.0
Ce63     Ce     0.0   0.75   0.8232
Ce64     Ce     0.75   0.0   0.8232
Ce65     Ce     0.0   0.25   0.8232
Ce66     Ce     0.25   0.0   0.8232
Ce67     Ce     0.8232   0.0   0.75
Ce68     Ce     0.0   0.8232   0.75
Ce69     Ce     0.0   0.8232   0.25
Ce70     Ce     0.8232   0.0   0.25
Ce71     Ce     0.25   0.3232   0.5
Ce72     Ce     0.3232   0.75   0.5
Ce73     Ce     0.75   0.5   0.3232
Ce74     Ce     0.5   0.25   0.3232
Ce75     Ce     0.5   0.3232   0.75
Ce76     Ce     0.3232   0.5   0.25
Ce77     Ce     0.75   0.3232   0.5
Ce78     Ce     0.3232   0.25   0.5
Ce79     Ce     0.25   0.5   0.3232
Ce80     Ce     0.5   0.75   0.3232
Ce81     Ce     0.5   0.3232   0.25
Ce82     Ce     0.3232   0.5   0.75
Ce83     Ce     0.75   0.6768   0.5
Ce84     Ce     0.6768   0.25   0.5
Ce85     Ce     0.5   0.75   0.6768
Ce86     Ce     0.25   0.5   0.6768
Ce87     Ce     0.6768   0.5   0.75
Ce88     Ce     0.5   0.6768   0.25
Ce89     Ce     0.25   0.6768   0.5
Ce90     Ce     0.6768   0.75   0.5
Ce91     Ce     0.5   0.25   0.6768
Ce92     Ce     0.75   0.5   0.6768
Ce93     Ce     0.6768   0.5   0.25
Ce94     Ce     0.5   0.6768   0.75
Er95     Er     0.6768   0.75   0.75
Er96     Er     0.75   0.75   0.6768
Er97     Er     0.75   0.6768   0.75
Er98     Er     0.75   0.8232   0.75
Er99     Er     0.8232   0.75   0.75
Er100     Er     0.75   0.75   0.8232
S101     S     0.5   0.0   0.4268
S102     S     0.4268   0.0   0.5
S103     S     0.5732   0.0   0.5
S104     S     0.5   0.0   0.5732
S105     S     0.0   0.5   0.4268
S106     S     0.0   0.4268   0.5
S107     S     0.0   0.5732   0.5
S108     S     0.0   0.5   0.5732
S109     S     0.4268   0.5   0.0
S110     S     0.5   0.4268   0.0
S111     S     0.5732   0.5   0.0
S112     S     0.5   0.5732   0.0
Er113     Er     0.25   0.25   0.6768
Er114     Er     0.25   0.1768   0.75
Er115     Er     0.1768   0.25   0.75
Er116     Er     0.3232   0.25   0.75
Er117     Er     0.25   0.3232   0.75
Er118     Er     0.25   0.25   0.8232
Li119     Li     0.25   0.0   0.5732
Li120     Li     0.25   0.0   0.4268
Li121     Li     0.25   0.9268   0.5
Li122     Li     0.25   0.0732   0.5
H123     H     0.1768   0.0   0.5
H124     H     0.3232   0.0   0.5
V125     V     0.25   0.9268   0.75
V126     V     0.25   0.0732   0.75
He127     He     0.3232   0.0   0.75
He128     He     0.25   0.0   0.6768
S129     S     0.9268   0.0   0.5
S130     S     0.0   0.9268   0.5
S131     S     0.0   0.0732   0.5
S132     S     0.0732   0.0   0.5
V133     V     0.25   0.25   0.5732
V134     V     0.25   0.25   0.4268
He135     He     0.1768   0.25   0.5
He136     He     0.25   0.1768   0.5
Li137     Li     0.0   0.25   0.5732
Li138     Li     0.0   0.25   0.4268
Li139     Li     0.9268   0.25   0.5
Li140     Li     0.0732   0.25   0.5
H141     H     0.0   0.1768   0.5
H142     H     0.0   0.3232   0.5
V143     V     0.9268   0.25   0.75
V144     V     0.0732   0.25   0.75
He145     He     0.0   0.3232   0.75
He146     He     0.0   0.25   0.6768
V147     V     0.5732   0.75   0.75
V148     V     0.4268   0.75   0.75
He149     He     0.5   0.8232   0.75
He150     He     0.5   0.75   0.8232
V151     V     0.25   0.5732   0.75
V152     V     0.25   0.4268   0.75
He153     He     0.25   0.5   0.8232
He154     He     0.1768   0.5   0.75
Er155     Er     0.25   0.75   0.6768
Er156     Er     0.25   0.6768   0.75
Er157     Er     0.1768   0.75   0.75
Er158     Er     0.3232   0.75   0.75
Er159     Er     0.25   0.8232   0.75
Er160     Er     0.25   0.75   0.8232
Li161     Li     0.0   0.5732   0.75
H162     H     0.0   0.5   0.6768
Li163     Li     0.0   0.4268   0.75
Li164     Li     0.9268   0.5   0.75
Li165     Li     0.0732   0.5   0.75
H166     H     0.0   0.5   0.8232
H167     H     0.0   0.6768   0.5
Li168     Li     0.0   0.75   0.4268
Li169     Li     0.9268   0.75   0.5
Li170     Li     0.0732   0.75   0.5
Li171     Li     0.0   0.75   0.5732
H172     H     0.0   0.8232   0.5
V173     V     0.9268   0.75   0.75
V174     V     0.0732   0.75   0.75
He175     He     0.0   0.75   0.6768
He176     He     0.0   0.6768   0.75
V177     V     0.25   0.75   0.5732
V178     V     0.25   0.75   0.4268
He179     He     0.25   0.8232   0.5
He180     He     0.1768   0.75   0.5
V181     V     0.75   0.75   0.5732
V182     V     0.75   0.75   0.4268
He183     He     0.8232   0.75   0.5
He184     He     0.75   0.8232   0.5
V185     V     0.75   0.5732   0.75
V186     V     0.75   0.4268   0.75
He187     He     0.75   0.5   0.8232
He188     He     0.8232   0.5   0.75
V189     V     0.5732   0.25   0.75
V190     V     0.4268   0.25   0.75
He191     He     0.5   0.25   0.8232
He192     He     0.5   0.1768   0.75
Er193     Er     0.6768   0.25   0.75
Er194     Er     0.75   0.25   0.6768
Er195     Er     0.75   0.1768   0.75
Er196     Er     0.75   0.3232   0.75
Er197     Er     0.8232   0.25   0.75
Er198     Er     0.75   0.25   0.8232
Li199     Li     0.5732   0.0   0.75
H200     H     0.5   0.0   0.6768
Li201     Li     0.4268   0.0   0.75
Li202     Li     0.5   0.9268   0.75
Li203     Li     0.5   0.0732   0.75
H204     H     0.5   0.0   0.8232
H205     H     0.6768   0.0   0.5
Li206     Li     0.75   0.0   0.4268
Li207     Li     0.75   0.9268   0.5
Li208     Li     0.75   0.0732   0.5
Li209     Li     0.75   0.0   0.5732
H210     H     0.8232   0.0   0.5
V211     V     0.75   0.9268   0.75
V212     V     0.75   0.0732   0.75
He213     He     0.75   0.0   0.6768
He214     He     0.6768   0.0   0.75
V215     V     0.75   0.25   0.5732
V216     V     0.75   0.25   0.4268
He217     He     0.8232   0.25   0.5
He218     He     0.75   0.1768   0.5
Er219     Er     0.6768   0.25   0.25
Er220     Er     0.75   0.1768   0.25
Er221     Er     0.75   0.25   0.1768
Er222     Er     0.75   0.3232   0.25
Er223     Er     0.75   0.25   0.3232
Er224     Er     0.8232   0.25   0.25
Li225     Li     0.5732   0.0   0.25
Li226     Li     0.4268   0.0   0.25
Li227     Li     0.5   0.9268   0.25
Li228     Li     0.5   0.0732   0.25
H229     H     0.5   0.0   0.1768
H230     H     0.5   0.0   0.3232
V231     V     0.75   0.9268   0.25
V232     V     0.75   0.0732   0.25
He233     He     0.75   0.0   0.3232
He234     He     0.6768   0.0   0.25
S235     S     0.5   0.9268   0.0
S236     S     0.5   0.0   0.9268
S237     S     0.5   0.0732   0.0
S238     S     0.5   0.0   0.0732
V239     V     0.5732   0.25   0.25
V240     V     0.4268   0.25   0.25
He241     He     0.5   0.25   0.1768
He242     He     0.5   0.1768   0.25
Li243     Li     0.5732   0.25   0.0
Li244     Li     0.4268   0.25   0.0
Li245     Li     0.5   0.25   0.9268
Li246     Li     0.5   0.25   0.0732
H247     H     0.5   0.1768   0.0
H248     H     0.5   0.3232   0.0
V249     V     0.75   0.25   0.9268
V250     V     0.75   0.25   0.0732
He251     He     0.75   0.3232   0.0
He252     He     0.6768   0.25   0.0
V253     V     0.75   0.5732   0.25
V254     V     0.75   0.4268   0.25
He255     He     0.8232   0.5   0.25
He256     He     0.75   0.5   0.1768
Er257     Er     0.75   0.6768   0.25
Er258     Er     0.6768   0.75   0.25
Er259     Er     0.75   0.75   0.1768
Er260     Er     0.75   0.75   0.3232
Er261     Er     0.8232   0.75   0.25
Er262     Er     0.75   0.8232   0.25
Li263     Li     0.75   0.5732   0.0
H264     H     0.6768   0.5   0.0
Li265     Li     0.75   0.4268   0.0
Li266     Li     0.75   0.5   0.9268
Li267     Li     0.75   0.5   0.0732
H268     H     0.8232   0.5   0.0
H269     H     0.5   0.6768   0.0
Li270     Li     0.4268   0.75   0.0
Li271     Li     0.5   0.75   0.9268
Li272     Li     0.5   0.75   0.0732
Li273     Li     0.5732   0.75   0.0
H274     H     0.5   0.8232   0.0
V275     V     0.75   0.75   0.9268
V276     V     0.75   0.75   0.0732
He277     He     0.6768   0.75   0.0
He278     He     0.75   0.6768   0.0
V279     V     0.5732   0.75   0.25
V280     V     0.4268   0.75   0.25
He281     He     0.5   0.8232   0.25
He282     He     0.5   0.75   0.1768
V283     V     0.25   0.25   0.9268
V284     V     0.25   0.25   0.0732
He285     He     0.25   0.3232   0.0
He286     He     0.3232   0.25   0.0
V287     V     0.25   0.9268   0.25
V288     V     0.25   0.0732   0.25
He289     He     0.25   0.0   0.3232
He290     He     0.3232   0.0   0.25
V291     V     0.9268   0.25   0.25
V292     V     0.0732   0.25   0.25
He293     He     0.0   0.25   0.3232
He294     He     0.0   0.3232   0.25
Er295     Er     0.1768   0.25   0.25
Er296     Er     0.25   0.1768   0.25
Er297     Er     0.25   0.25   0.1768
Er298     Er     0.25   0.3232   0.25
Er299     Er     0.3232   0.25   0.25
Er300     Er     0.25   0.25   0.3232
Er301     Er     0.25   0.6768   0.25
Er302     Er     0.1768   0.75   0.25
Er303     Er     0.25   0.75   0.1768
Er304     Er     0.3232   0.75   0.25
Er305     Er     0.25   0.75   0.3232
Er306     Er     0.25   0.8232   0.25
Li307     Li     0.0   0.5732   0.25
Li308     Li     0.0   0.4268   0.25
Li309     Li     0.9268   0.5   0.25
Li310     Li     0.0732   0.5   0.25
H311     H     0.0   0.5   0.1768
H312     H     0.0   0.5   0.3232
V313     V     0.9268   0.75   0.25
V314     V     0.0732   0.75   0.25
He315     He     0.0   0.75   0.3232
He316     He     0.0   0.6768   0.25
S317     S     0.9268   0.5   0.0
S318     S     0.0   0.5   0.9268
S319     S     0.0732   0.5   0.0
S320     S     0.0   0.5   0.0732
V321     V     0.25   0.5732   0.25
V322     V     0.25   0.4268   0.25
He323     He     0.25   0.5   0.1768
He324     He     0.1768   0.5   0.25
Li325     Li     0.25   0.5732   0.0
Li326     Li     0.25   0.4268   0.0
Li327     Li     0.25   0.5   0.9268
Li328     Li     0.25   0.5   0.0732
H329     H     0.1768   0.5   0.0
H330     H     0.3232   0.5   0.0
V331     V     0.25   0.75   0.9268
V332     V     0.25   0.75   0.0732
He333     He     0.3232   0.75   0.0
He334     He     0.25   0.6768   0.0
Ce335     Ce     0.0   0.25   0.1768
Ce336     Ce     0.0   0.1768   0.25
loop_
_geom_bond_atom_site_label_1
_geom_bond_atom_site_label_2
_geom_bond_distance
_geom_bond_site_symmetry_2
_ccdc_geom_bond_type
Ti1     Ti3    9.999   .     S
Ti1     Ti2    9.999   .     S
Ti1     Ce84    10.0   .     S
Ti2     Ti4    9.999   .     S
Ti2     Ce91    10.0   .     S
Ti3     Ti4    9.999   .     S
Ti3     Ce74    10.0   .     S
Ti4     Ce78    10.0   .     S
Ti5     Ti7    9.999   .     S
Ti5     Ti6    9.999   .     S
Ti5     Ce89    10.0   .     S
Ti6     Ti8    9.999   .     S
Ti6     Ce86    10.0   .     S
Ti7     Ti8    9.999   .     S
Ti7     Ce79    10.0   .     S
Ti8     Ce71    10.0   .     S
Ti9     Ti11    9.999   .     S
Ti9     Ti10    9.999   .     S
Ti9     Ce90    10.0   .     S
Ti10     Ti12    9.999   .     S
Ti10     Ce85    10.0   .     S
Ti11     Ti12    9.999   .     S
Ti11     Ce80    10.0   .     S
Ti12     Ce72    10.0   .     S
Ti13     Ti15    9.999   .     S
Ti13     Ti14    9.999   .     S
Ti13     Ce83    10.0   .     S
Ti14     Ti16    9.999   .     S
Ti14     Ce92    10.0   .     S
Ti15     Ti16    9.999   .     S
Ti15     Ce73    10.0   .     S
Ti16     Ce77    10.0   .     S
Ti17     Ti18    9.999   .     S
Ti17     Ti20    9.999   .     S
Ti17     Ce81    10.0   .     S
Ti18     Ti19    9.999   .     S
Ti18     Ce76    10.0   .     S
Ti19     Ti20    9.999   .     S
Ti19     Ce88    10.0   .     S
Ti20     Ce93    10.0   .     S
Ti21     Ti24    9.999   .     S
Ti21     Ti22    9.999   .     S
Ti21     Ce87    10.0   .     S
Ti22     Ti23    9.999   .     S
Ti22     Ce94    10.0   .     S
Ti23     Ti24    9.999   .     S
Ti23     Ce82    10.0   .     S
Ti24     Ce75    10.0   .     S
Ti25     Ti26    9.999   1_456     S
Ti25     Ti28    9.999   1_556     S
Ti25     Ce63    10.0   .     S
Ti26     Ti25    9.999   1_654     S
Ti26     Ti27    9.999   1_655     S
Ti26     Ce60    10.0   .     S
Ti27     Ti28    9.999   .     S
Ti27     Ti26    9.999   1_455     S
Ti27     Ce53    10.0   .     S
Ti28     Ti25    9.999   1_554     S
Ti28     Ce50    10.0   .     S
Ti29     Ti30    9.999   1_564     S
Ti29     Ti31    9.999   1_565     S
Ti29     Ce61    10.0   .     S
Ti30     Ti29    9.999   1_546     S
Ti30     Ti32    9.999   1_556     S
Ti30     Ce64    10.0   .     S
Ti31     Ti29    9.999   1_545     S
Ti31     Ti32    9.999   .     S
Ti31     Ce54    10.0   .     S
Ti32     Ti30    9.999   1_554     S
Ti32     Ce49    10.0   .     S
Ti33     Ti34    9.999   1_654     S
Ti33     Ti35    9.999   1_655     S
Ti33     Ce62    10.0   .     S
Ti34     Ti33    9.999   1_456     S
Ti34     Ti36    9.999   1_556     S
Ti34     Ce65    10.0   .     S
Ti35     Ti33    9.999   1_455     S
Ti35     Ti36    9.999   .     S
Ti35     Ce335    10.0   .     S
Ti36     Ti34    9.999   1_554     S
Ti36     Ce52    10.0   .     S
Ti37     Ti38    9.999   1_546     S
Ti37     Ti40    9.999   1_556     S
Ti37     Ce66    10.0   .     S
Ti38     Ti37    9.999   1_564     S
Ti38     Ti39    9.999   1_565     S
Ti38     Ce59    10.0   .     S
Ti39     Ti40    9.999   .     S
Ti39     Ti38    9.999   1_545     S
Ti39     Ce57    10.0   .     S
Ti40     Ti37    9.999   1_554     S
Ti40     Ce51    10.0   .     S
Ti41     Ti42    9.999   1_465     S
Ti41     Ti43    9.999   1_565     S
Ti41     Ce68    10.0   .     S
Ti42     Ti41    9.999   1_645     S
Ti42     Ti44    9.999   1_655     S
Ti42     Ce67    10.0   .     S
Ti43     Ti41    9.999   1_545     S
Ti43     Ti44    9.999   .     S
Ti43     Ce56    10.0   .     S
Ti44     Ti42    9.999   1_455     S
Ti44     Ce55    10.0   .     S
Ti45     Ti46    9.999   1_645     S
Ti45     Ti47    9.999   1_655     S
Ti45     Ce70    10.0   .     S
Ti46     Ti45    9.999   1_465     S
Ti46     Ti48    9.999   1_565     S
Ti46     Ce69    10.0   .     S
Ti47     Ti48    9.999   .     S
Ti47     Ti45    9.999   1_455     S
Ti47     Ce336    10.0   .     S
Ti48     Ti46    9.999   1_545     S
Ti48     Ce58    10.0   .     S
Ce49     He252    10.0   .     S
Ce49     V249    10.0   1_554     S
Ce49     V250    10.0   .     S
Ce49     Ce62    10.001   .     S
Ce50     He334    10.0   .     S
Ce50     V331    10.0   1_554     S
Ce50     V332    10.0   .     S
Ce50     Ce59    10.001   .     S
Ce51     He286    10.0   .     S
Ce51     V283    10.0   1_554     S
Ce51     V284    10.0   .     S
Ce51     Ce52    10.001   .     S
Ce52     He285    10.0   .     S
Ce52     V283    10.0   1_554     S
Ce52     V284    10.0   .     S
Ce53     He316    10.0   .     S
Ce53     V313    10.0   1_455     S
Ce53     V314    10.0   .     S
Ce53     Ce69    10.001   .     S
Ce54     He234    10.0   .     S
Ce54     V231    10.0   1_545     S
Ce54     V232    10.0   .     S
Ce54     Ce70    10.001   .     S
Ce55     He146    10.0   .     S
Ce55     V143    10.0   1_455     S
Ce55     V144    10.0   .     S
Ce55     Ce65    10.001   .     S
Ce56     He128    10.0   .     S
Ce56     V125    10.0   1_545     S
Ce56     V126    10.0   .     S
Ce56     Ce66    10.001   .     S
Ce57     He290    10.0   .     S
Ce57     V287    10.0   1_545     S
Ce57     V288    10.0   .     S
Ce57     Ce58    10.001   .     S
Ce58     He289    10.0   .     S
Ce58     V287    10.0   1_545     S
Ce58     V288    10.0   .     S
Ce59     He333    10.0   .     S
Ce59     V331    10.0   1_554     S
Ce59     V332    10.0   .     S
Ce60     He278    10.0   .     S
Ce60     V275    10.0   1_554     S
Ce60     V276    10.0   .     S
Ce60     Ce61    10.001   .     S
Ce61     He277    10.0   .     S
Ce61     V275    10.0   1_554     S
Ce61     V276    10.0   .     S
Ce62     He251    10.0   .     S
Ce62     V249    10.0   1_554     S
Ce62     V250    10.0   .     S
Ce63     He176    10.0   .     S
Ce63     V173    10.0   1_455     S
Ce63     V174    10.0   .     S
Ce63     Ce68    10.001   .     S
Ce64     He214    10.0   .     S
Ce64     V211    10.0   1_545     S
Ce64     V212    10.0   .     S
Ce64     Ce67    10.001   .     S
Ce65     He145    10.0   .     S
Ce65     V143    10.0   1_455     S
Ce65     V144    10.0   .     S
Ce66     He127    10.0   .     S
Ce66     V125    10.0   1_545     S
Ce66     V126    10.0   .     S
Ce67     He213    10.0   .     S
Ce67     V211    10.0   1_545     S
Ce67     V212    10.0   .     S
Ce68     He175    10.0   .     S
Ce68     V173    10.0   1_455     S
Ce68     V174    10.0   .     S
Ce69     He315    10.0   .     S
Ce69     V313    10.0   1_455     S
Ce69     V314    10.0   .     S
Ce70     He233    10.0   .     S
Ce70     V231    10.0   1_545     S
Ce70     V232    10.0   .     S
Ce71     He135    10.0   .     S
Ce71     V134    10.0   .     S
Ce71     V133    10.0   .     S
Ce71     Ce78    10.001   .     S
Ce72     He179    10.0   .     S
Ce72     V178    10.0   .     S
Ce72     V177    10.0   .     S
Ce72     Ce89    10.001   .     S
Ce73     He255    10.0   .     S
Ce73     V254    10.0   .     S
Ce73     V253    10.0   .     S
Ce73     Ce93    10.001   .     S
Ce74     He242    10.0   .     S
Ce74     V240    10.0   .     S
Ce74     V239    10.0   .     S
Ce74     Ce81    10.001   .     S
Ce75     He191    10.0   .     S
Ce75     V190    10.0   .     S
Ce75     V189    10.0   .     S
Ce75     Ce91    10.001   .     S
Ce76     He323    10.0   .     S
Ce76     V322    10.0   .     S
Ce76     V321    10.0   .     S
Ce76     Ce79    10.001   .     S
Ce77     He217    10.0   .     S
Ce77     V216    10.0   .     S
Ce77     V215    10.0   .     S
Ce77     Ce84    10.001   .     S
Ce78     He136    10.0   .     S
Ce78     V134    10.0   .     S
Ce78     V133    10.0   .     S
Ce79     He324    10.0   .     S
Ce79     V322    10.0   .     S
Ce79     V321    10.0   .     S
Ce80     He281    10.0   .     S
Ce80     V280    10.0   .     S
Ce80     V279    10.0   .     S
Ce80     Ce88    10.001   .     S
Ce81     He241    10.0   .     S
Ce81     V240    10.0   .     S
Ce81     V239    10.0   .     S
Ce82     He153    10.0   .     S
Ce82     V152    10.0   .     S
Ce82     V151    10.0   .     S
Ce82     Ce86    10.001   .     S
Ce83     He183    10.0   .     S
Ce83     V182    10.0   .     S
Ce83     V181    10.0   .     S
Ce83     Ce90    10.001   .     S
Ce84     He218    10.0   .     S
Ce84     V216    10.0   .     S
Ce84     V215    10.0   .     S
Ce85     He149    10.0   .     S
Ce85     V148    10.0   .     S
Ce85     V147    10.0   .     S
Ce85     Ce94    10.001   .     S
Ce86     He154    10.0   .     S
Ce86     V152    10.0   .     S
Ce86     V151    10.0   .     S
Ce87     He187    10.0   .     S
Ce87     V186    10.0   .     S
Ce87     V185    10.0   .     S
Ce87     Ce92    10.001   .     S
Ce88     He282    10.0   .     S
Ce88     V280    10.0   .     S
Ce88     V279    10.0   .     S
Ce89     He180    10.0   .     S
Ce89     V178    10.0   .     S
Ce89     V177    10.0   .     S
Ce90     He184    10.0   .     S
Ce90     V182    10.0   .     S
Ce90     V181    10.0   .     S
Ce91     He192    10.0   .     S
Ce91     V190    10.0   .     S
Ce91     V189    10.0   .     S
Ce92     He188    10.0   .     S
Ce92     V186    10.0   .     S
Ce92     V185    10.0   .     S
Ce93     He256    10.0   .     S
Ce93     V254    10.0   .     S
Ce93     V253    10.0   .     S
Ce94     He150    10.0   .     S
Ce94     V148    10.0   .     S
Ce94     V147    10.0   .     S
Er95     Er100    9.999   .     S
Er95     Er98    9.999   .     S
Er95     Er97    9.999   .     S
Er95     Er96    9.999   .     S
Er95     V147    10.001   .     S
Er96     Er98    9.999   .     S
Er96     Er99    9.999   .     S
Er96     Er97    9.999   .     S
Er96     V181    10.001   .     S
Er97     Er99    9.999   .     S
Er97     Er100    9.999   .     S
Er97     V185    10.001   .     S
Er98     Er99    9.999   .     S
Er98     Er100    9.999   .     S
Er98     V211    10.001   .     S
Er99     Er100    9.999   .     S
Er99     V173    10.001   .     S
Er100     V275    10.001   .     S
S101     S102    9.999   .     S
S101     S103    9.999   .     S
S101     H230    10.001   .     S
S102     S104    9.999   .     S
S102     H124    10.001   .     S
S103     S104    9.999   .     S
S103     H205    10.001   .     S
S104     H200    10.001   .     S
S105     S106    9.999   .     S
S105     S107    9.999   .     S
S105     H312    10.001   .     S
S106     S108    9.999   .     S
S106     H142    10.001   .     S
S107     S108    9.999   .     S
S107     H167    10.001   .     S
S108     H162    10.001   .     S
S109     S110    9.999   .     S
S109     S112    9.999   .     S
S109     H330    10.001   .     S
S110     S111    9.999   .     S
S110     H248    10.001   .     S
S111     S112    9.999   .     S
S111     H264    10.001   .     S
S112     H269    10.001   .     S
Er113     Er114    9.999   .     S
Er113     Er115    9.999   .     S
Er113     Er117    9.999   .     S
Er113     Er116    9.999   .     S
Er113     V133    10.001   .     S
Er114     Er116    9.999   .     S
Er114     Er115    9.999   .     S
Er114     Er118    9.999   .     S
Er114     V126    10.001   .     S
Er115     Er117    9.999   .     S
Er115     Er118    9.999   .     S
Er115     V144    10.001   .     S
Er116     Er118    9.999   .     S
Er116     Er117    9.999   .     S
Er116     V190    10.001   .     S
Er117     Er118    9.999   .     S
Er117     V152    10.001   .     S
Er118     V283    10.001   .     S
Li119     H124    9.999   .     S
Li119     H123    9.999   .     S
Li119     Li121    9.999   1_545     S
Li119     Li122    9.999   .     S
Li119     He128    10.001   .     S
Li120     H124    9.999   .     S
Li120     H123    9.999   .     S
Li120     Li121    9.999   1_545     S
Li120     Li122    9.999   .     S
Li120     He289    10.001   .     S
Li121     Li119    9.999   1_565     S
Li121     H123    9.999   1_565     S
Li121     H124    9.999   1_565     S
Li121     Li120    9.999   1_565     S
Li121     He179    10.001   .     S
Li122     H123    9.999   .     S
Li122     H124    9.999   .     S
Li122     He136    10.001   .     S
H123     Li121    9.999   1_545     S
H123     S132    10.001   .     S
H124     Li121    9.999   1_545     S
V125     Ce56    10.0   1_565     S
V125     Ce66    10.0   1_565     S
V125     He127    9.999   1_565     S
V125     He128    9.999   1_565     S
V125     Er159    10.001   .     S
V126     He128    9.999   .     S
V126     He127    9.999   .     S
He127     V125    9.999   1_545     S
He127     He128    9.999   .     S
He127     Li201    10.001   .     S
He128     V125    9.999   1_545     S
S129     S130    9.999   1_645     S
S129     S131    9.999   1_655     S
S129     H210    10.001   .     S
S130     S129    9.999   1_465     S
S130     S132    9.999   1_565     S
S130     H172    10.001   .     S
S131     S132    9.999   .     S
S131     S129    9.999   1_455     S
S131     H141    10.001   .     S
S132     S130    9.999   1_545     S
V133     He136    9.999   .     S
V133     He135    9.999   .     S
V134     He135    9.999   .     S
V134     He136    9.999   .     S
V134     Er300    10.001   .     S
He135     He136    9.999   .     S
He135     Li140    10.001   .     S
Li137     H142    9.999   .     S
Li137     H141    9.999   .     S
Li137     Li139    9.999   1_455     S
Li137     Li140    9.999   .     S
Li137     He146    10.001   .     S
Li138     H142    9.999   .     S
Li138     H141    9.999   .     S
Li138     Li139    9.999   1_455     S
Li138     Li140    9.999   .     S
Li138     He293    10.001   .     S
Li139     Li137    9.999   1_655     S
Li139     H141    9.999   1_655     S
Li139     H142    9.999   1_655     S
Li139     Li138    9.999   1_655     S
Li139     He217    10.001   .     S
Li140     H141    9.999   .     S
Li140     H142    9.999   .     S
H141     Li139    9.999   1_455     S
H142     Li139    9.999   1_455     S
V143     Ce55    10.0   1_655     S
V143     Ce65    10.0   1_655     S
V143     He146    9.999   1_655     S
V143     He145    9.999   1_655     S
V143     Er197    10.001   .     S
V144     He145    9.999   .     S
V144     He146    9.999   .     S
He145     V143    9.999   1_455     S
He145     He146    9.999   .     S
He145     Li163    10.001   .     S
He146     V143    9.999   1_455     S
V147     He150    9.999   .     S
V147     He149    9.999   .     S
V148     He149    9.999   .     S
V148     He150    9.999   .     S
V148     Er158    10.001   .     S
He149     He150    9.999   .     S
He149     Li202    10.001   .     S
He150     Li271    10.001   .     S
V151     He153    9.999   .     S
V151     He154    9.999   .     S
V151     Er156    10.001   .     S
V152     He154    9.999   .     S
V152     He153    9.999   .     S
He153     He154    9.999   .     S
He153     Li327    10.001   .     S
He154     Li165    10.001   .     S
Er155     Er157    9.999   .     S
Er155     Er159    9.999   .     S
Er155     Er158    9.999   .     S
Er155     Er156    9.999   .     S
Er155     V177    10.001   .     S
Er156     Er157    9.999   .     S
Er156     Er160    9.999   .     S
Er156     Er158    9.999   .     S
Er157     Er159    9.999   .     S
Er157     Er160    9.999   .     S
Er157     V174    10.001   .     S
Er158     Er159    9.999   .     S
Er158     Er160    9.999   .     S
Er159     Er160    9.999   .     S
Er160     V331    10.001   .     S
Li161     H162    9.999   .     S
Li161     H166    9.999   .     S
Li161     Li164    9.999   1_455     S
Li161     Li165    9.999   .     S
Li161     He176    10.001   .     S
H162     Li163    9.999   .     S
H162     Li164    9.999   1_455     S
H162     Li165    9.999   .     S
Li163     H166    9.999   .     S
Li163     Li164    9.999   1_455     S
Li163     Li165    9.999   .     S
Li164     Li161    9.999   1_655     S
Li164     H166    9.999   1_655     S
Li164     H162    9.999   1_655     S
Li164     Li163    9.999   1_655     S
Li164     He188    10.001   .     S
Li165     H166    9.999   .     S
H166     Li164    9.999   1_455     S
H166     S318    10.001   .     S
H167     Li168    9.999   .     S
H167     Li169    9.999   1_455     S
H167     Li170    9.999   .     S
H167     Li171    9.999   .     S
Li168     H172    9.999   .     S
Li168     Li169    9.999   1_455     S
Li168     Li170    9.999   .     S
Li168     He315    10.001   .     S
Li169     H172    9.999   1_655     S
Li169     H167    9.999   1_655     S
Li169     Li168    9.999   1_655     S
Li169     Li171    9.999   1_655     S
Li169     He183    10.001   .     S
Li170     H172    9.999   .     S
Li170     Li171    9.999   .     S
Li170     He180    10.001   .     S
Li171     H172    9.999   .     S
Li171     Li169    9.999   1_455     S
Li171     He175    10.001   .     S
H172     Li169    9.999   1_455     S
V173     Ce63    10.0   1_655     S
V173     Ce68    10.0   1_655     S
V173     He176    9.999   1_655     S
V173     He175    9.999   1_655     S
V174     He175    9.999   .     S
V174     He176    9.999   .     S
He175     He176    9.999   .     S
He175     V173    9.999   1_455     S
He176     V173    9.999   1_455     S
V177     He180    9.999   .     S
V177     He179    9.999   .     S
V178     He179    9.999   .     S
V178     He180    9.999   .     S
V178     Er305    10.001   .     S
He179     He180    9.999   .     S
V181     He184    9.999   .     S
V181     He183    9.999   .     S
V182     He183    9.999   .     S
V182     He184    9.999   .     S
V182     Er260    10.001   .     S
He183     He184    9.999   .     S
He184     Li207    10.001   .     S
V185     He188    9.999   .     S
V185     He187    9.999   .     S
V186     He187    9.999   .     S
V186     He188    9.999   .     S
V186     Er196    10.001   .     S
He187     He188    9.999   .     S
He187     Li266    10.001   .     S
V189     He192    9.999   .     S
V189     He191    9.999   .     S
V189     Er193    10.001   .     S
V190     He192    9.999   .     S
V190     He191    9.999   .     S
He191     He192    9.999   .     S
He191     Li245    10.001   .     S
He192     Li203    10.001   .     S
Er193     Er195    9.999   .     S
Er193     Er198    9.999   .     S
Er193     Er196    9.999   .     S
Er193     Er194    9.999   .     S
Er194     Er195    9.999   .     S
Er194     Er197    9.999   .     S
Er194     Er196    9.999   .     S
Er194     V215    10.001   .     S
Er195     Er197    9.999   .     S
Er195     Er198    9.999   .     S
Er195     V212    10.001   .     S
Er196     Er197    9.999   .     S
Er196     Er198    9.999   .     S
Er197     Er198    9.999   .     S
Er198     V249    10.001   .     S
Li199     H200    9.999   .     S
Li199     H204    9.999   .     S
Li199     Li202    9.999   1_545     S
Li199     Li203    9.999   .     S
Li199     He214    10.001   .     S
H200     Li201    9.999   .     S
H200     Li202    9.999   1_545     S
H200     Li203    9.999   .     S
Li201     H204    9.999   .     S
Li201     Li202    9.999   1_545     S
Li201     Li203    9.999   .     S
Li202     Li199    9.999   1_565     S
Li202     H204    9.999   1_565     S
Li202     H200    9.999   1_565     S
Li202     Li201    9.999   1_565     S
Li203     H204    9.999   .     S
H204     Li202    9.999   1_545     S
H204     S236    10.001   .     S
H205     Li206    9.999   .     S
H205     Li207    9.999   1_545     S
H205     Li208    9.999   .     S
H205     Li209    9.999   .     S
Li206     H210    9.999   .     S
Li206     Li207    9.999   1_545     S
Li206     Li208    9.999   .     S
Li206     He233    10.001   .     S
Li207     H210    9.999   1_565     S
Li207     H205    9.999   1_565     S
Li207     Li206    9.999   1_565     S
Li207     Li209    9.999   1_565     S
Li208     H210    9.999   .     S
Li208     Li209    9.999   .     S
Li208     He218    10.001   .     S
Li209     H210    9.999   .     S
Li209     Li207    9.999   1_545     S
Li209     He213    10.001   .     S
H210     Li207    9.999   1_545     S
V211     Ce64    10.0   1_565     S
V211     Ce67    10.0   1_565     S
V211     He213    9.999   1_565     S
V211     He214    9.999   1_565     S
V212     He214    9.999   .     S
V212     He213    9.999   .     S
He213     V211    9.999   1_545     S
He213     He214    9.999   .     S
He214     V211    9.999   1_545     S
V215     He217    9.999   .     S
V215     He218    9.999   .     S
V216     He218    9.999   .     S
V216     He217    9.999   .     S
V216     Er223    10.001   .     S
He217     He218    9.999   .     S
Er219     Er220    9.999   .     S
Er219     Er221    9.999   .     S
Er219     Er222    9.999   .     S
Er219     Er223    9.999   .     S
Er219     V239    10.001   .     S
Er220     Er223    9.999   .     S
Er220     Er224    9.999   .     S
Er220     Er221    9.999   .     S
Er220     V232    10.001   .     S
Er221     Er222    9.999   .     S
Er221     Er224    9.999   .     S
Er221     V250    10.001   .     S
Er222     Er224    9.999   .     S
Er222     Er223    9.999   .     S
Er222     V254    10.001   .     S
Er223     Er224    9.999   .     S
Er224     V291    10.001   .     S
Li225     H230    9.999   .     S
Li225     H229    9.999   .     S
Li225     Li227    9.999   1_545     S
Li225     Li228    9.999   .     S
Li225     He234    10.001   .     S
Li226     H230    9.999   .     S
Li226     H229    9.999   .     S
Li226     Li227    9.999   1_545     S
Li226     Li228    9.999   .     S
Li226     He290    10.001   .     S
Li227     Li225    9.999   1_565     S
Li227     H229    9.999   1_565     S
Li227     H230    9.999   1_565     S
Li227     Li226    9.999   1_565     S
Li227     He281    10.001   .     S
Li228     H229    9.999   .     S
Li228     H230    9.999   .     S
Li228     He242    10.001   .     S
H229     Li227    9.999   1_545     S
H229     S238    10.001   .     S
H230     Li227    9.999   1_545     S
V231     Ce54    10.0   1_565     S
V231     Ce70    10.0   1_565     S
V231     He234    9.999   1_565     S
V231     He233    9.999   1_565     S
V231     Er262    10.001   .     S
V232     He233    9.999   .     S
V232     He234    9.999   .     S
He233     V231    9.999   1_545     S
He233     He234    9.999   .     S
He234     V231    9.999   1_545     S
S235     S236    9.999   1_564     S
S235     S238    9.999   1_565     S
S235     H274    10.001   .     S
S236     S235    9.999   1_546     S
S236     S237    9.999   1_556     S
S237     S238    9.999   .     S
S237     S236    9.999   1_554     S
S237     H247    10.001   .     S
S238     S235    9.999   1_545     S
V239     He241    9.999   .     S
V239     He242    9.999   .     S
V240     He242    9.999   .     S
V240     He241    9.999   .     S
V240     Er299    10.001   .     S
He241     He242    9.999   .     S
He241     Li246    10.001   .     S
Li243     H248    9.999   .     S
Li243     H247    9.999   .     S
Li243     Li245    9.999   1_554     S
Li243     Li246    9.999   .     S
Li243     He252    10.001   .     S
Li244     H248    9.999   .     S
Li244     H247    9.999   .     S
Li244     Li245    9.999   1_554     S
Li244     Li246    9.999   .     S
Li244     He286    10.001   .     S
Li245     Li243    9.999   1_556     S
Li245     H247    9.999   1_556     S
Li245     H248    9.999   1_556     S
Li245     Li244    9.999   1_556     S
Li246     H247    9.999   .     S
Li246     H248    9.999   .     S
H247     Li245    9.999   1_554     S
H248     Li245    9.999   1_554     S
V249     Ce49    10.0   1_556     S
V249     Ce62    10.0   1_556     S
V249     He251    9.999   1_556     S
V249     He252    9.999   1_556     S
V250     He252    9.999   .     S
V250     He251    9.999   .     S
He251     V249    9.999   1_554     S
He251     He252    9.999   .     S
He251     Li265    10.001   .     S
He252     V249    9.999   1_554     S
V253     He256    9.999   .     S
V253     He255    9.999   .     S
V253     Er257    10.001   .     S
V254     He256    9.999   .     S
V254     He255    9.999   .     S
He255     He256    9.999   .     S
He255     Li309    10.001   .     S
He256     Li267    10.001   .     S
Er257     Er259    9.999   .     S
Er257     Er261    9.999   .     S
Er257     Er258    9.999   .     S
Er257     Er260    9.999   .     S
Er258     Er262    9.999   .     S
Er258     Er259    9.999   .     S
Er258     Er260    9.999   .     S
Er258     V279    10.001   .     S
Er259     Er262    9.999   .     S
Er259     Er261    9.999   .     S
Er259     V276    10.001   .     S
Er260     Er261    9.999   .     S
Er260     Er262    9.999   .     S
Er261     Er262    9.999   .     S
Er261     V313    10.001   .     S
Li263     H264    9.999   .     S
Li263     H268    9.999   .     S
Li263     Li266    9.999   1_554     S
Li263     Li267    9.999   .     S
Li263     He278    10.001   .     S
H264     Li265    9.999   .     S
H264     Li266    9.999   1_554     S
H264     Li267    9.999   .     S
Li265     H268    9.999   .     S
Li265     Li266    9.999   1_554     S
Li265     Li267    9.999   .     S
Li266     Li263    9.999   1_556     S
Li266     H268    9.999   1_556     S
Li266     H264    9.999   1_556     S
Li266     Li265    9.999   1_556     S
Li267     H268    9.999   .     S
H268     Li266    9.999   1_554     S
H268     S317    10.001   .     S
H269     Li270    9.999   .     S
H269     Li271    9.999   1_554     S
H269     Li272    9.999   .     S
H269     Li273    9.999   .     S
Li270     H274    9.999   .     S
Li270     Li271    9.999   1_554     S
Li270     Li272    9.999   .     S
Li270     He333    10.001   .     S
Li271     H274    9.999   1_556     S
Li271     H269    9.999   1_556     S
Li271     Li270    9.999   1_556     S
Li271     Li273    9.999   1_556     S
Li272     H274    9.999   .     S
Li272     Li273    9.999   .     S
Li272     He282    10.001   .     S
Li273     H274    9.999   .     S
Li273     Li271    9.999   1_554     S
Li273     He277    10.001   .     S
H274     Li271    9.999   1_554     S
V275     Ce60    10.0   1_556     S
V275     Ce61    10.0   1_556     S
V275     He277    9.999   1_556     S
V275     He278    9.999   1_556     S
V276     He278    9.999   .     S
V276     He277    9.999   .     S
He277     V275    9.999   1_554     S
He277     He278    9.999   .     S
He278     V275    9.999   1_554     S
V279     He281    9.999   .     S
V279     He282    9.999   .     S
V280     He282    9.999   .     S
V280     He281    9.999   .     S
V280     Er304    10.001   .     S
He281     He282    9.999   .     S
V283     Ce51    10.0   1_556     S
V283     Ce52    10.0   1_556     S
V283     He286    9.999   1_556     S
V283     He285    9.999   1_556     S
V284     He285    9.999   .     S
V284     He286    9.999   .     S
V284     Er297    10.001   .     S
He285     He286    9.999   .     S
He285     V283    9.999   1_554     S
He285     Li326    10.001   .     S
He286     V283    9.999   1_554     S
V287     Ce57    10.0   1_565     S
V287     Ce58    10.0   1_565     S
V287     He289    9.999   1_565     S
V287     He290    9.999   1_565     S
V287     Er306    10.001   .     S
V288     He290    9.999   .     S
V288     He289    9.999   .     S
V288     Er296    10.001   .     S
He289     V287    9.999   1_545     S
He289     He290    9.999   .     S
He290     V287    9.999   1_545     S
V291     He294    9.999   1_655     S
V291     He293    9.999   1_655     S
V291     Ce335    10.0   1_655     S
V291     Ce336    10.0   1_655     S
V292     He293    9.999   .     S
V292     He294    9.999   .     S
V292     Er295    10.001   .     S
V292     Ce335    10.0   .     S
V292     Ce336    10.0   .     S
He293     He294    9.999   .     S
He293     V291    9.999   1_455     S
He293     Ce336    10.0   .     S
He294     V291    9.999   1_455     S
He294     Li308    10.001   .     S
He294     Ce335    10.0   .     S
Er295     Er300    9.999   .     S
Er295     Er298    9.999   .     S
Er295     Er296    9.999   .     S
Er295     Er297    9.999   .     S
Er296     Er300    9.999   .     S
Er296     Er299    9.999   .     S
Er296     Er297    9.999   .     S
Er297     Er298    9.999   .     S
Er297     Er299    9.999   .     S
Er298     Er299    9.999   .     S
Er298     Er300    9.999   .     S
Er298     V322    10.001   .     S
Er299     Er300    9.999   .     S
Er301     Er302    9.999   .     S
Er301     Er303    9.999   .     S
Er301     Er304    9.999   .     S
Er301     Er305    9.999   .     S
Er301     V321    10.001   .     S
Er302     Er305    9.999   .     S
Er302     Er306    9.999   .     S
Er302     Er303    9.999   .     S
Er302     V314    10.001   .     S
Er303     Er304    9.999   .     S
Er303     Er306    9.999   .     S
Er303     V332    10.001   .     S
Er304     Er306    9.999   .     S
Er304     Er305    9.999   .     S
Er305     Er306    9.999   .     S
Li307     H312    9.999   .     S
Li307     H311    9.999   .     S
Li307     Li309    9.999   1_455     S
Li307     Li310    9.999   .     S
Li307     He316    10.001   .     S
Li308     H312    9.999   .     S
Li308     H311    9.999   .     S
Li308     Li309    9.999   1_455     S
Li308     Li310    9.999   .     S
Li309     Li307    9.999   1_655     S
Li309     H311    9.999   1_655     S
Li309     H312    9.999   1_655     S
Li309     Li308    9.999   1_655     S
Li310     H311    9.999   .     S
Li310     H312    9.999   .     S
Li310     He324    10.001   .     S
H311     Li309    9.999   1_455     S
H311     S320    10.001   .     S
H312     Li309    9.999   1_455     S
V313     Ce53    10.0   1_655     S
V313     Ce69    10.0   1_655     S
V313     He315    9.999   1_655     S
V313     He316    9.999   1_655     S
V314     He316    9.999   .     S
V314     He315    9.999   .     S
He315     V313    9.999   1_455     S
He315     He316    9.999   .     S
He316     V313    9.999   1_455     S
S317     S318    9.999   1_654     S
S317     S320    9.999   1_655     S
S318     S317    9.999   1_456     S
S318     S319    9.999   1_556     S
S319     S320    9.999   .     S
S319     S318    9.999   1_554     S
S319     H329    10.001   .     S
S320     S317    9.999   1_455     S
V321     He324    9.999   .     S
V321     He323    9.999   .     S
V322     He323    9.999   .     S
V322     He324    9.999   .     S
He323     He324    9.999   .     S
He323     Li328    10.001   .     S
Li325     H330    9.999   .     S
Li325     H329    9.999   .     S
Li325     Li327    9.999   1_554     S
Li325     Li328    9.999   .     S
Li325     He334    10.001   .     S
Li326     H330    9.999   .     S
Li326     H329    9.999   .     S
Li326     Li327    9.999   1_554     S
Li326     Li328    9.999   .     S
Li327     Li325    9.999   1_556     S
Li327     H329    9.999   1_556     S
Li327     H330    9.999   1_556     S
Li327     Li326    9.999   1_556     S
Li328     H329    9.999   .     S
Li328     H330    9.999   .     S
H329     Li327    9.999   1_554     S
H330     Li327    9.999   1_554     S
V331     Ce50    10.0   1_556     S
V331     Ce59    10.0   1_556     S
V331     He334    9.999   1_556     S
V331     He333    9.999   1_556     S
V332     He333    9.999   .     S
V332     He334    9.999   .     S
He333     V331    9.999   1_554     S
He333     He334    9.999   .     S
He334     V331    9.999   1_554     S
Ce335     V291    10.0   1_455     S
Ce335     Ce336    10.001   .     S
Ce336     V291    10.0   1_455     S
