data_wal
_audit_creation_date              2020-02-04
_audit_creation_method            'Pymatgen'
_symmetry_space_group_name_H-M    'P1'
_symmetry_Int_Tables_number       1
loop_
_symmetry_equiv_pos_as_xyz
  x,y,z
_cell_length_a                    26.8817
_cell_length_b                    26.8817
_cell_length_c                    26.8817
_cell_angle_alpha                 90.0
_cell_angle_beta                 90.0
_cell_angle_gamma                 90.0
loop_
_atom_site_label
_atom_site_type_symbol
_atom_site_fract_x
_atom_site_fract_y
_atom_site_fract_z
V1     V     0.199   0.314   0.5
V2     V     0.0   0.699   0.186
V3     V     0.0   0.699   0.814
V4     V     0.199   0.686   0.5
V5     V     0.186   0.0   0.301
V6     V     0.5   0.199   0.314
V7     V     0.186   0.0   0.699
V8     V     0.814   0.0   0.699
V9     V     0.5   0.199   0.686
V10     V     0.301   0.186   0.0
V11     V     0.314   0.5   0.199
V12     V     0.314   0.5   0.801
V13     V     0.0   0.301   0.814
V14     V     0.686   0.5   0.801
V15     V     0.801   0.686   0.5
V16     V     0.814   0.0   0.301
V17     V     0.801   0.314   0.5
V18     V     0.699   0.186   0.0
V19     V     0.699   0.814   0.0
V20     V     0.686   0.5   0.199
V21     V     0.0   0.301   0.186
V22     V     0.5   0.801   0.686
V23     V     0.301   0.814   0.0
V24     V     0.5   0.801   0.314
loop_
_geom_bond_atom_site_label_1
_geom_bond_atom_site_label_2
_geom_bond_distance
_geom_bond_site_symmetry_2
_ccdc_geom_bond_type
V1     V9    10.0   .     S
V1     V6    10.0   .     S
V1     V11    10.0   .     S
V1     V12    10.0   .     S
V1     V13    10.0   .     S
V1     V7    10.0   .     S
V1     V21    10.0   .     S
V1     V5    10.0   .     S
V1     V4    10.0   .     S
V2     V5    10.0   1_565     S
V2     V16    10.0   1_465     S
V2     V19    10.0   1_455     S
V2     V15    10.0   1_455     S
V2     V20    10.0   1_455     S
V2     V4    10.0   .     S
V2     V23    10.0   .     S
V2     V11    10.0   .     S
V2     V3    10.0   1_554     S
V3     V8    10.0   1_465     S
V3     V7    10.0   1_565     S
V3     V15    10.0   1_455     S
V3     V14    10.0   1_455     S
V3     V19    10.0   1_456     S
V3     V4    10.0   .     S
V3     V12    10.0   .     S
V3     V23    10.0   1_556     S
V3     V2    10.0   1_556     S
V4     V22    10.0   .     S
V4     V24    10.0   .     S
V4     V5    10.0   1_565     S
V4     V7    10.0   1_565     S
V4     V11    10.0   .     S
V4     V12    10.0   .     S
V5     V2    10.0   1_545     S
V5     V24    10.0   1_545     S
V5     V10    10.0   .     S
V5     V23    10.0   1_545     S
V5     V6    10.0   .     S
V5     V4    10.0   1_545     S
V5     V21    10.0   .     S
V5     V16    10.0   1_455     S
V6     V10    10.0   .     S
V6     V20    10.0   .     S
V6     V11    10.0   .     S
V6     V16    10.0   .     S
V6     V18    10.0   .     S
V6     V17    10.0   .     S
V6     V9    10.0   .     S
V7     V3    10.0   1_545     S
V7     V22    10.0   1_545     S
V7     V4    10.0   1_545     S
V7     V9    10.0   .     S
V7     V10    10.0   1_556     S
V7     V23    10.0   1_546     S
V7     V13    10.0   .     S
V7     V8    10.0   1_455     S
V8     V3    10.0   1_645     S
V8     V19    10.0   1_546     S
V8     V18    10.0   1_556     S
V8     V13    10.0   1_655     S
V8     V22    10.0   1_545     S
V8     V15    10.0   1_545     S
V8     V9    10.0   .     S
V8     V17    10.0   .     S
V8     V7    10.0   1_655     S
V9     V14    10.0   .     S
V9     V12    10.0   .     S
V9     V10    10.0   1_556     S
V9     V18    10.0   1_556     S
V9     V17    10.0   .     S
V10     V7    10.0   1_554     S
V10     V12    10.0   1_554     S
V10     V21    10.0   .     S
V10     V13    10.0   1_554     S
V10     V11    10.0   .     S
V10     V9    10.0   1_554     S
V10     V23    10.0   1_545     S
V11     V21    10.0   .     S
V11     V23    10.0   .     S
V11     V24    10.0   .     S
V11     V20    10.0   .     S
V12     V10    10.0   1_556     S
V12     V13    10.0   .     S
V12     V22    10.0   .     S
V12     V23    10.0   1_556     S
V12     V14    10.0   .     S
V13     V10    10.0   1_556     S
V13     V8    10.0   1_455     S
V13     V17    10.0   1_455     S
V13     V14    10.0   1_455     S
V13     V18    10.0   1_456     S
V13     V21    10.0   1_556     S
V14     V18    10.0   1_556     S
V14     V15    10.0   .     S
V14     V17    10.0   .     S
V14     V3    10.0   1_655     S
V14     V13    10.0   1_655     S
V14     V22    10.0   .     S
V14     V19    10.0   1_556     S
V15     V3    10.0   1_655     S
V15     V22    10.0   .     S
V15     V24    10.0   .     S
V15     V8    10.0   1_565     S
V15     V16    10.0   1_565     S
V15     V20    10.0   .     S
V15     V2    10.0   1_655     S
V15     V17    10.0   .     S
V16     V2    10.0   1_645     S
V16     V24    10.0   1_545     S
V16     V18    10.0   .     S
V16     V19    10.0   1_545     S
V16     V15    10.0   1_545     S
V16     V21    10.0   1_655     S
V16     V17    10.0   .     S
V16     V5    10.0   1_655     S
V17     V13    10.0   1_655     S
V17     V20    10.0   .     S
V17     V21    10.0   1_655     S
V18     V8    10.0   1_554     S
V18     V14    10.0   1_554     S
V18     V9    10.0   1_554     S
V18     V20    10.0   .     S
V18     V21    10.0   1_655     S
V18     V13    10.0   1_654     S
V18     V19    10.0   1_545     S
V19     V8    10.0   1_564     S
V19     V16    10.0   1_565     S
V19     V3    10.0   1_654     S
V19     V2    10.0   1_655     S
V19     V14    10.0   1_554     S
V19     V22    10.0   1_554     S
V19     V20    10.0   .     S
V19     V24    10.0   .     S
V19     V18    10.0   1_565     S
V20     V21    10.0   1_655     S
V20     V2    10.0   1_655     S
V20     V24    10.0   .     S
V21     V18    10.0   1_455     S
V21     V17    10.0   1_455     S
V21     V16    10.0   1_455     S
V21     V20    10.0   1_455     S
V21     V13    10.0   1_554     S
V22     V7    10.0   1_565     S
V22     V8    10.0   1_565     S
V22     V19    10.0   1_556     S
V22     V23    10.0   1_556     S
V22     V24    10.0   .     S
V23     V5    10.0   1_565     S
V23     V7    10.0   1_564     S
V23     V12    10.0   1_554     S
V23     V3    10.0   1_554     S
V23     V22    10.0   1_554     S
V23     V24    10.0   .     S
V23     V10    10.0   1_565     S
V24     V5    10.0   1_565     S
V24     V16    10.0   1_565     S
