data_wfg
_audit_creation_date              2020-02-04
_audit_creation_method            'Pymatgen'
_symmetry_space_group_name_H-M    'P1'
_symmetry_Int_Tables_number       1
loop_
_symmetry_equiv_pos_as_xyz
  x,y,z
_cell_length_a                    27.0065
_cell_length_b                    27.0065
_cell_length_c                    18.5784
_cell_angle_alpha                 90.0
_cell_angle_beta                 90.0
_cell_angle_gamma                 90.0
loop_
_atom_site_label
_atom_site_type_symbol
_atom_site_fract_x
_atom_site_fract_y
_atom_site_fract_z
V1     V     0.8186   0.4973   0.0534
V2     V     0.1814   0.5027   0.9466
V3     V     0.0027   0.6814   0.5534
V4     V     0.9973   0.3186   0.4466
V5     V     0.0027   0.8186   0.0534
V6     V     0.9973   0.1814   0.9466
V7     V     0.1814   0.9973   0.4466
V8     V     0.8186   0.0027   0.5534
V9     V     0.6814   0.0027   0.0534
V10     V     0.3186   0.9973   0.9466
V11     V     0.5027   0.1814   0.4466
V12     V     0.4973   0.8186   0.5534
V13     V     0.6814   0.4973   0.5534
V14     V     0.3186   0.5027   0.4466
V15     V     0.4973   0.6814   0.0534
V16     V     0.5027   0.3186   0.9466
loop_
_geom_bond_atom_site_label_1
_geom_bond_atom_site_label_2
_geom_bond_distance
_geom_bond_site_symmetry_2
_ccdc_geom_bond_type
V1     V5    10.0   1_655     S
V1     V2    10.0   1_654     S
V1     V6    10.0   1_554     S
V1     V4    10.0   .     S
V1     V13    10.0   .     S
V1     V15    10.0   .     S
V1     V16    10.0   1_554     S
V1     V13    10.0   1_554     S
V2     V6    10.0   1_455     S
V2     V1    10.0   1_456     S
V2     V5    10.0   1_556     S
V2     V3    10.0   .     S
V2     V14    10.0   .     S
V2     V16    10.0   .     S
V2     V15    10.0   1_556     S
V2     V14    10.0   1_556     S
V3     V13    10.0   1_455     S
V3     V4    10.0   1_455     S
V3     V14    10.0   .     S
V3     V5    10.0   1_556     S
V3     V8    10.0   1_465     S
V3     V7    10.0   .     S
V3     V5    10.0   .     S
V4     V14    10.0   1_655     S
V4     V3    10.0   1_655     S
V4     V13    10.0   .     S
V4     V6    10.0   1_554     S
V4     V7    10.0   1_645     S
V4     V8    10.0   .     S
V4     V6    10.0   .     S
V5     V1    10.0   1_455     S
V5     V2    10.0   1_554     S
V5     V3    10.0   1_554     S
V5     V9    10.0   1_465     S
V5     V6    10.0   1_464     S
V5     V10    10.0   1_554     S
V5     V7    10.0   .     S
V6     V2    10.0   1_655     S
V6     V1    10.0   1_556     S
V6     V4    10.0   1_556     S
V6     V10    10.0   1_645     S
V6     V5    10.0   1_646     S
V6     V9    10.0   1_556     S
V6     V8    10.0   .     S
V7     V4    10.0   1_465     S
V7     V8    10.0   1_465     S
V7     V10    10.0   1_554     S
V7     V11    10.0   1_565     S
V7     V12    10.0   .     S
V7     V10    10.0   .     S
V8     V3    10.0   1_645     S
V8     V7    10.0   1_645     S
V8     V9    10.0   1_556     S
V8     V12    10.0   1_545     S
V8     V11    10.0   .     S
V8     V9    10.0   .     S
V9     V5    10.0   1_645     S
V9     V6    10.0   1_554     S
V9     V8    10.0   1_554     S
V9     V15    10.0   1_545     S
V9     V10    10.0   1_544     S
V9     V16    10.0   1_554     S
V9     V11    10.0   .     S
V10     V6    10.0   1_465     S
V10     V5    10.0   1_556     S
V10     V7    10.0   1_556     S
V10     V16    10.0   1_565     S
V10     V9    10.0   1_566     S
V10     V15    10.0   1_556     S
V10     V12    10.0   .     S
V11     V7    10.0   1_545     S
V11     V12    10.0   1_545     S
V11     V16    10.0   1_554     S
V11     V14    10.0   .     S
V11     V13    10.0   .     S
V11     V16    10.0   .     S
V12     V8    10.0   1_565     S
V12     V11    10.0   1_565     S
V12     V15    10.0   1_556     S
V12     V13    10.0   .     S
V12     V14    10.0   .     S
V12     V15    10.0   .     S
V13     V3    10.0   1_655     S
V13     V14    10.0   .     S
V13     V16    10.0   .     S
V13     V1    10.0   1_556     S
V14     V4    10.0   1_455     S
V14     V15    10.0   .     S
V14     V2    10.0   1_554     S
V15     V9    10.0   1_565     S
V15     V10    10.0   1_554     S
V15     V12    10.0   1_554     S
V15     V16    10.0   1_554     S
V15     V2    10.0   1_554     S
V16     V10    10.0   1_545     S
V16     V9    10.0   1_556     S
V16     V11    10.0   1_556     S
V16     V15    10.0   1_556     S
V16     V1    10.0   1_556     S
