data_wfo
_audit_creation_date              2020-02-04
_audit_creation_method            'Pymatgen'
_symmetry_space_group_name_H-M    'P1'
_symmetry_Int_Tables_number       1
loop_
_symmetry_equiv_pos_as_xyz
  x,y,z
_cell_length_a                    18.5431
_cell_length_b                    18.5431
_cell_length_c                    38.3906
_cell_angle_alpha                 90.0
_cell_angle_beta                 90.0
_cell_angle_gamma                 90.0
loop_
_atom_site_label
_atom_site_type_symbol
_atom_site_fract_x
_atom_site_fract_y
_atom_site_fract_z
V1     V     0.1454   0.0229   0.7988
V2     V     0.3546   0.4771   0.7012
V3     V     0.2729   0.6046   0.9512
V4     V     0.7271   0.3954   0.0488
V5     V     0.7271   0.8954   0.9512
V6     V     0.2729   0.1046   0.0488
V7     V     0.6454   0.5229   0.2988
V8     V     0.8546   0.9771   0.2012
V9     V     0.2271   0.3954   0.4512
V10     V     0.7729   0.6046   0.5488
V11     V     0.8546   0.4771   0.7988
V12     V     0.6454   0.0229   0.7012
V13     V     0.1454   0.5229   0.2012
V14     V     0.3546   0.9771   0.2988
V15     V     0.7729   0.1046   0.4512
V16     V     0.2271   0.8954   0.5488
loop_
_geom_bond_atom_site_label_1
_geom_bond_atom_site_label_2
_geom_bond_distance
_geom_bond_site_symmetry_2
_ccdc_geom_bond_type
V1     V11    10.0   1_455     S
V1     V12    10.0   1_455     S
V1     V3    10.0   1_545     S
V1     V6    10.0   1_556     S
V1     V2    10.0   .     S
V1     V5    10.0   1_445     S
V1     V12    10.0   .     S
V1     V16    10.0   1_545     S
V2     V11    10.0   1_455     S
V2     V16    10.0   .     S
V2     V9    10.0   .     S
V2     V3    10.0   .     S
V2     V10    10.0   .     S
V2     V12    10.0   .     S
V2     V11    10.0   .     S
V3     V5    10.0   .     S
V3     V6    10.0   1_566     S
V3     V1    10.0   1_565     S
V3     V6    10.0   1_556     S
V3     V11    10.0   1_455     S
V3     V4    10.0   1_556     S
V3     V13    10.0   1_556     S
V4     V5    10.0   1_554     S
V4     V6    10.0   .     S
V4     V5    10.0   1_544     S
V4     V13    10.0   1_655     S
V4     V7    10.0   .     S
V4     V3    10.0   1_554     S
V4     V8    10.0   1_545     S
V4     V11    10.0   1_554     S
V5     V4    10.0   1_556     S
V5     V4    10.0   1_566     S
V5     V1    10.0   1_665     S
V5     V12    10.0   1_565     S
V5     V6    10.0   1_566     S
V5     V8    10.0   1_556     S
V5     V11    10.0   .     S
V6     V3    10.0   1_544     S
V6     V1    10.0   1_554     S
V6     V3    10.0   1_554     S
V6     V8    10.0   1_445     S
V6     V14    10.0   1_545     S
V6     V5    10.0   1_544     S
V6     V13    10.0   .     S
V7     V13    10.0   1_655     S
V7     V14    10.0   .     S
V7     V13    10.0   .     S
V7     V15    10.0   .     S
V7     V10    10.0   .     S
V7     V8    10.0   .     S
V7     V9    10.0   .     S
V8     V13    10.0   1_655     S
V8     V14    10.0   1_655     S
V8     V6    10.0   1_665     S
V8     V14    10.0   .     S
V8     V4    10.0   1_565     S
V8     V5    10.0   1_554     S
V8     V15    10.0   1_565     S
V9     V15    10.0   1_455     S
V9     V16    10.0   1_545     S
V9     V16    10.0   .     S
V9     V13    10.0   .     S
V9     V10    10.0   1_455     S
V9     V14    10.0   1_545     S
V10     V15    10.0   .     S
V10     V16    10.0   1_655     S
V10     V15    10.0   1_565     S
V10     V11    10.0   .     S
V10     V9    10.0   1_655     S
V10     V12    10.0   1_565     S
V11     V1    10.0   1_655     S
V11     V2    10.0   1_655     S
V11     V3    10.0   1_655     S
V11     V4    10.0   1_556     S
V11     V12    10.0   .     S
V12     V1    10.0   1_655     S
V12     V5    10.0   1_545     S
V12     V10    10.0   1_545     S
V12     V15    10.0   .     S
V12     V16    10.0   1_545     S
V13     V8    10.0   1_455     S
V13     V7    10.0   1_455     S
V13     V4    10.0   1_455     S
V13     V3    10.0   1_554     S
V13     V14    10.0   .     S
V14     V8    10.0   1_455     S
V14     V6    10.0   1_565     S
V14     V9    10.0   1_565     S
V14     V16    10.0   .     S
V14     V15    10.0   1_565     S
V15     V9    10.0   1_655     S
V15     V10    10.0   1_545     S
V15     V14    10.0   1_545     S
V15     V8    10.0   1_545     S
V15     V16    10.0   1_645     S
V16     V9    10.0   1_565     S
V16     V10    10.0   1_455     S
V16     V12    10.0   1_565     S
V16     V1    10.0   1_565     S
V16     V15    10.0   1_465     S
