data_wgq
_audit_creation_date              2020-02-04
_audit_creation_method            'Pymatgen'
_symmetry_space_group_name_H-M    'P1'
_symmetry_Int_Tables_number       1
loop_
_symmetry_equiv_pos_as_xyz
  x,y,z
_cell_length_a                    19.8586
_cell_length_b                    19.8586
_cell_length_c                    78.1767
_cell_angle_alpha                 90.0
_cell_angle_beta                 90.0
_cell_angle_gamma                 90.0
loop_
_atom_site_label
_atom_site_type_symbol
_atom_site_fract_x
_atom_site_fract_y
_atom_site_fract_z
V1     V     0.7799   0.6278   0.4365
V2     V     0.8778   0.5299   0.3135
V3     V     0.2201   0.8722   0.4365
V4     V     0.1222   0.9701   0.3135
V5     V     0.7201   0.1278   0.4365
V6     V     0.6222   0.0299   0.3135
V7     V     0.3778   0.4701   0.3135
V8     V     0.2799   0.3722   0.4365
V9     V     0.7201   0.6278   0.5635
V10     V     0.6222   0.5299   0.6865
V11     V     0.2799   0.8722   0.5635
V12     V     0.3778   0.9701   0.6865
V13     V     0.2201   0.3722   0.5635
V14     V     0.1222   0.4701   0.6865
V15     V     0.7799   0.1278   0.5635
V16     V     0.8778   0.0299   0.6865
V17     V     0.2799   0.6278   0.0635
V18     V     0.3778   0.5299   0.1865
V19     V     0.6222   0.9701   0.1865
V20     V     0.7201   0.8722   0.0635
V21     V     0.1222   0.0299   0.1865
V22     V     0.2201   0.1278   0.0635
V23     V     0.8778   0.4701   0.1865
V24     V     0.7799   0.3722   0.0635
V25     V     0.2799   0.1278   0.9365
V26     V     0.3778   0.0299   0.8135
V27     V     0.6222   0.4701   0.8135
V28     V     0.7201   0.3722   0.9365
V29     V     0.2201   0.6278   0.9365
V30     V     0.1222   0.5299   0.8135
V31     V     0.7799   0.8722   0.9365
V32     V     0.8778   0.9701   0.8135
loop_
_geom_bond_atom_site_label_1
_geom_bond_atom_site_label_2
_geom_bond_distance
_geom_bond_site_symmetry_2
_ccdc_geom_bond_type
V1     V2    9.999   .     S
V1     V3    10.0   1_655     S
V1     V5    10.0   .     S
V1     V5    10.0   1_565     S
V1     V9    10.001   .     S
V2     V4    10.0   1_655     S
V2     V7    10.0   .     S
V2     V7    10.0   1_655     S
V2     V23    10.001   .     S
V3     V4    9.999   .     S
V3     V1    10.0   1_455     S
V3     V8    10.0   1_565     S
V3     V8    10.0   .     S
V3     V11    10.001   .     S
V4     V2    10.0   1_455     S
V4     V6    10.0   1_465     S
V4     V6    10.0   1_565     S
V4     V21    10.001   1_565     S
V5     V6    9.999   .     S
V5     V8    10.0   .     S
V5     V1    10.0   1_545     S
V5     V15    10.001   .     S
V6     V4    10.0   1_645     S
V6     V7    10.0   .     S
V6     V4    10.0   1_545     S
V6     V19    10.001   1_545     S
V7     V8    9.999   .     S
V7     V2    10.0   1_455     S
V7     V18    10.001   .     S
V8     V3    10.0   1_545     S
V8     V13    10.001   .     S
V9     V10    9.999   .     S
V9     V11    10.0   .     S
V9     V15    10.0   .     S
V9     V15    10.0   1_565     S
V10     V12    10.0   .     S
V10     V14    10.0   1_655     S
V10     V14    10.0   .     S
V10     V27    10.001   .     S
V11     V12    9.999   .     S
V11     V13    10.0   1_565     S
V11     V13    10.0   .     S
V12     V16    10.0   1_465     S
V12     V16    10.0   1_565     S
V12     V26    10.001   1_565     S
V13     V11    10.0   1_545     S
V13     V14    9.999   .     S
V13     V15    10.0   1_455     S
V14     V16    10.0   1_455     S
V14     V10    10.0   1_455     S
V14     V30    10.001   .     S
V15     V16    9.999   .     S
V15     V13    10.0   1_655     S
V15     V9    10.0   1_545     S
V16     V12    10.0   1_645     S
V16     V12    10.0   1_545     S
V16     V14    10.0   1_655     S
V16     V32    10.001   1_545     S
V17     V18    9.999   .     S
V17     V20    10.0   .     S
V17     V22    10.0   .     S
V17     V22    10.0   1_565     S
V17     V29    10.001   1_554     S
V18     V19    10.0   .     S
V18     V23    10.0   .     S
V18     V23    10.0   1_455     S
V19     V6    10.001   1_565     S
V19     V20    9.999   .     S
V19     V21    10.0   1_665     S
V19     V21    10.0   1_565     S
V20     V24    10.0   1_565     S
V20     V24    10.0   .     S
V20     V31    10.001   1_554     S
V21     V22    9.999   .     S
V21     V23    10.0   1_455     S
V21     V19    10.0   1_445     S
V21     V19    10.0   1_545     S
V21     V4    10.001   1_545     S
V22     V24    10.0   1_455     S
V22     V17    10.0   1_545     S
V22     V25    10.001   1_554     S
V23     V24    9.999   .     S
V23     V21    10.0   1_655     S
V23     V18    10.0   1_655     S
V24     V22    10.0   1_655     S
V24     V20    10.0   1_545     S
V24     V28    10.001   1_554     S
V25     V26    9.999   .     S
V25     V28    10.0   .     S
V25     V29    10.0   .     S
V25     V29    10.0   1_545     S
V25     V22    10.001   1_556     S
V26     V27    10.0   .     S
V26     V32    10.0   1_445     S
V26     V32    10.0   1_545     S
V26     V12    10.001   1_545     S
V27     V28    9.999   .     S
V27     V30    10.0   1_655     S
V27     V30    10.0   .     S
V28     V31    10.0   1_545     S
V28     V31    10.0   .     S
V28     V24    10.001   1_556     S
V29     V30    9.999   .     S
V29     V31    10.0   1_455     S
V29     V25    10.0   1_565     S
V29     V17    10.001   1_556     S
V30     V32    10.0   1_455     S
V30     V27    10.0   1_455     S
V31     V32    9.999   .     S
V31     V29    10.0   1_655     S
V31     V28    10.0   1_565     S
V31     V20    10.001   1_556     S
V32     V30    10.0   1_655     S
V32     V26    10.0   1_665     S
V32     V26    10.0   1_565     S
V32     V16    10.001   1_565     S
