data_wio
_audit_creation_date              2020-02-04
_audit_creation_method            'Pymatgen'
_symmetry_space_group_name_H-M    'P1'
_symmetry_Int_Tables_number       1
loop_
_symmetry_equiv_pos_as_xyz
  x,y,z
_cell_length_a                    35.7007
_cell_length_b                    35.7007
_cell_length_c                    23.2676
_cell_angle_alpha                 90.0
_cell_angle_beta                 90.0
_cell_angle_gamma                 90.0
loop_
_atom_site_label
_atom_site_type_symbol
_atom_site_fract_x
_atom_site_fract_y
_atom_site_fract_z
V1     V     0.6221   0.5979   0.4126
V2     V     0.8779   0.5979   0.5874
V3     V     0.8479   0.6279   0.1626
V4     V     0.8479   0.3721   0.3374
V5     V     0.8779   0.4021   0.9126
V6     V     0.6221   0.4021   0.0874
V7     V     0.6521   0.6279   0.8374
V8     V     0.6521   0.3721   0.6626
V9     V     0.6521   0.1279   0.1626
V10     V     0.6521   0.8721   0.3374
V11     V     0.8779   0.0979   0.4126
V12     V     0.6221   0.0979   0.5874
V13     V     0.8779   0.9021   0.0874
V14     V     0.6221   0.9021   0.9126
V15     V     0.8479   0.1279   0.8374
V16     V     0.8479   0.8721   0.6626
V17     V     0.3479   0.1279   0.6626
V18     V     0.3479   0.8721   0.8374
V19     V     0.1221   0.9021   0.5874
V20     V     0.3779   0.9021   0.4126
V21     V     0.1521   0.1279   0.3374
V22     V     0.1521   0.8721   0.1626
V23     V     0.1221   0.0979   0.9126
V24     V     0.3779   0.0979   0.0874
V25     V     0.1221   0.4021   0.4126
V26     V     0.3779   0.4021   0.5874
V27     V     0.3479   0.6279   0.3374
V28     V     0.3479   0.3721   0.1626
V29     V     0.1221   0.5979   0.0874
V30     V     0.3779   0.5979   0.9126
V31     V     0.1521   0.6279   0.6626
V32     V     0.1521   0.3721   0.8374
loop_
_geom_bond_atom_site_label_1
_geom_bond_atom_site_label_2
_geom_bond_distance
_geom_bond_site_symmetry_2
_ccdc_geom_bond_type
V1     V3    10.0   .     S
V1     V10    10.0   .     S
V1     V2    10.0   .     S
V1     V8    10.0   .     S
V1     V7    10.0   .     S
V1     V27    10.0   .     S
V2     V7    10.0   .     S
V2     V16    10.0   .     S
V2     V4    10.0   .     S
V2     V3    10.0   .     S
V2     V31    10.0   1_655     S
V3     V5    10.0   1_554     S
V3     V29    10.0   1_655     S
V3     V4    10.0   .     S
V3     V13    10.0   .     S
V4     V25    10.0   1_655     S
V4     V6    10.0   .     S
V4     V5    10.0   1_554     S
V4     V11    10.0   .     S
V5     V3    10.0   1_556     S
V5     V8    10.0   .     S
V5     V15    10.0   .     S
V5     V6    10.0   1_556     S
V5     V4    10.0   1_556     S
V5     V32    10.0   1_655     S
V6     V9    10.0   .     S
V6     V5    10.0   1_554     S
V6     V7    10.0   1_554     S
V6     V8    10.0   1_554     S
V6     V28    10.0   .     S
V7     V6    10.0   1_556     S
V7     V30    10.0   .     S
V7     V8    10.0   .     S
V7     V14    10.0   .     S
V8     V26    10.0   .     S
V8     V6    10.0   1_556     S
V8     V12    10.0   .     S
V9     V14    10.0   1_544     S
V9     V24    10.0   .     S
V9     V10    10.0   1_545     S
V9     V11    10.0   .     S
V9     V12    10.0   .     S
V10     V12    10.0   1_565     S
V10     V20    10.0   .     S
V10     V9    10.0   1_565     S
V10     V13    10.0   .     S
V10     V14    10.0   1_554     S
V11     V12    10.0   .     S
V11     V16    10.0   1_545     S
V11     V15    10.0   .     S
V11     V21    10.0   1_655     S
V12     V10    10.0   1_545     S
V12     V15    10.0   .     S
V12     V17    10.0   .     S
V13     V14    10.0   1_554     S
V13     V15    10.0   1_564     S
V13     V16    10.0   1_554     S
V13     V22    10.0   1_655     S
V14     V9    10.0   1_566     S
V14     V16    10.0   .     S
V14     V13    10.0   1_556     S
V14     V10    10.0   1_556     S
V14     V18    10.0   .     S
V15     V13    10.0   1_546     S
V15     V23    10.0   1_655     S
V15     V16    10.0   1_545     S
V16     V11    10.0   1_565     S
V16     V19    10.0   1_655     S
V16     V15    10.0   1_565     S
V16     V13    10.0   1_556     S
V17     V20    10.0   1_545     S
V17     V18    10.0   1_545     S
V17     V23    10.0   .     S
V17     V24    10.0   1_556     S
V17     V26    10.0   .     S
V18     V24    10.0   1_566     S
V18     V17    10.0   1_565     S
V18     V19    10.0   .     S
V18     V20    10.0   .     S
V18     V30    10.0   .     S
V19     V16    10.0   1_455     S
V19     V31    10.0   .     S
V19     V20    10.0   .     S
V19     V21    10.0   1_565     S
V19     V22    10.0   .     S
V20     V17    10.0   1_565     S
V20     V22    10.0   .     S
V20     V27    10.0   .     S
V21     V19    10.0   1_545     S
V21     V11    10.0   1_455     S
V21     V22    10.0   1_545     S
V21     V24    10.0   .     S
V21     V23    10.0   1_554     S
V21     V25    10.0   .     S
V22     V23    10.0   1_564     S
V22     V13    10.0   1_455     S
V22     V21    10.0   1_565     S
V22     V29    10.0   .     S
V23     V15    10.0   1_455     S
V23     V22    10.0   1_546     S
V23     V32    10.0   .     S
V23     V24    10.0   1_556     S
V23     V21    10.0   1_556     S
V24     V18    10.0   1_544     S
V24     V28    10.0   .     S
V24     V23    10.0   1_554     S
V24     V17    10.0   1_554     S
V25     V4    10.0   1_455     S
V25     V28    10.0   .     S
V25     V26    10.0   .     S
V25     V31    10.0   .     S
V25     V32    10.0   .     S
V26     V32    10.0   .     S
V26     V27    10.0   .     S
V26     V28    10.0   .     S
V27     V28    10.0   .     S
V27     V29    10.0   .     S
V27     V30    10.0   1_554     S
V28     V30    10.0   1_554     S
V29     V3    10.0   1_455     S
V29     V30    10.0   1_554     S
V29     V32    10.0   1_554     S
V29     V31    10.0   1_554     S
V30     V28    10.0   1_556     S
V30     V31    10.0   .     S
V30     V29    10.0   1_556     S
V30     V27    10.0   1_556     S
V31     V2    10.0   1_455     S
V31     V32    10.0   .     S
V31     V29    10.0   1_556     S
V32     V29    10.0   1_556     S
V32     V5    10.0   1_455     S
