data_wjc
_audit_creation_date              2020-02-04
_audit_creation_method            'Pymatgen'
_symmetry_space_group_name_H-M    'P1'
_symmetry_Int_Tables_number       1
loop_
_symmetry_equiv_pos_as_xyz
  x,y,z
_cell_length_a                    26.4576
_cell_length_b                    26.4576
_cell_length_c                    38.5162
_cell_angle_alpha                 90.0
_cell_angle_beta                 90.0
_cell_angle_gamma                 120.0
loop_
_atom_site_label
_atom_site_type_symbol
_atom_site_fract_x
_atom_site_fract_y
_atom_site_fract_z
V1     V     0.8571   0.2857   0.8702
V2     V     0.7143   0.1429   0.6298
V3     V     0.4286   0.1429   0.8702
V4     V     0.4286   0.2857   0.6298
V5     V     0.8571   0.5714   0.6298
V6     V     0.7143   0.5714   0.8702
V7     V     0.1429   0.7143   0.8702
V8     V     0.2857   0.8571   0.6298
V9     V     0.5714   0.7143   0.6298
V10     V     0.5714   0.8571   0.8702
V11     V     0.2857   0.4286   0.8702
V12     V     0.1429   0.4286   0.6298
V13     V     0.7143   0.1429   0.3702
V14     V     0.8571   0.2857   0.1298
V15     V     0.8571   0.5714   0.3702
V16     V     0.7143   0.5714   0.1298
V17     V     0.4286   0.2857   0.3702
V18     V     0.4286   0.1429   0.1298
V19     V     0.1429   0.7143   0.1298
V20     V     0.2857   0.8571   0.3702
V21     V     0.5714   0.7143   0.3702
V22     V     0.5714   0.8571   0.1298
V23     V     0.1429   0.4286   0.3702
V24     V     0.2857   0.4286   0.1298
loop_
_geom_bond_atom_site_label_1
_geom_bond_atom_site_label_2
_geom_bond_distance
_geom_bond_site_symmetry_2
_ccdc_geom_bond_type
V1     V2    10.0   .     S
V1     V10    10.0   1_545     S
V1     V3    10.0   .     S
V1     V6    10.0   .     S
V1     V11    10.0   1_655     S
V1     V7    10.0   1_655     S
V1     V14    10.0   1_556     S
V2     V12    10.0   1_655     S
V2     V4    10.0   .     S
V2     V5    10.0   .     S
V2     V9    10.0   1_545     S
V2     V8    10.0   1_545     S
V2     V13    10.0   .     S
V3     V4    10.0   .     S
V3     V11    10.0   .     S
V3     V6    10.0   .     S
V3     V7    10.0   1_545     S
V3     V10    10.0   1_545     S
V3     V18    10.0   1_556     S
V4     V5    10.0   .     S
V4     V8    10.0   1_545     S
V4     V12    10.0   .     S
V4     V9    10.0   .     S
V4     V17    10.0   .     S
V5     V6    10.0   .     S
V5     V9    10.0   .     S
V5     V8    10.0   1_655     S
V5     V12    10.0   1_655     S
V5     V15    10.0   .     S
V6     V7    10.0   1_655     S
V6     V10    10.0   .     S
V6     V11    10.0   .     S
V6     V16    10.0   1_556     S
V7     V6    10.0   1_455     S
V7     V8    10.0   .     S
V7     V3    10.0   1_565     S
V7     V10    10.0   .     S
V7     V11    10.0   .     S
V7     V1    10.0   1_455     S
V7     V19    10.0   1_556     S
V8     V4    10.0   1_565     S
V8     V5    10.0   1_455     S
V8     V12    10.0   .     S
V8     V9    10.0   .     S
V8     V2    10.0   1_565     S
V8     V20    10.0   .     S
V9     V10    10.0   .     S
V9     V2    10.0   1_565     S
V9     V12    10.0   .     S
V9     V21    10.0   .     S
V10     V1    10.0   1_565     S
V10     V11    10.0   .     S
V10     V3    10.0   1_565     S
V10     V22    10.0   1_556     S
V11     V12    10.0   .     S
V11     V1    10.0   1_455     S
V11     V24    10.0   1_556     S
V12     V2    10.0   1_455     S
V12     V5    10.0   1_455     S
V12     V23    10.0   .     S
V13     V14    10.0   .     S
V13     V23    10.0   1_655     S
V13     V17    10.0   .     S
V13     V15    10.0   .     S
V13     V21    10.0   1_545     S
V13     V20    10.0   1_545     S
V14     V18    10.0   .     S
V14     V16    10.0   .     S
V14     V22    10.0   1_545     S
V14     V24    10.0   1_655     S
V14     V19    10.0   1_655     S
V14     V1    10.0   1_554     S
V15     V16    10.0   .     S
V15     V21    10.0   .     S
V15     V17    10.0   .     S
V15     V20    10.0   1_655     S
V15     V23    10.0   1_655     S
V16     V18    10.0   .     S
V16     V19    10.0   1_655     S
V16     V22    10.0   .     S
V16     V24    10.0   .     S
V16     V6    10.0   1_554     S
V17     V18    10.0   .     S
V17     V20    10.0   1_545     S
V17     V23    10.0   .     S
V17     V21    10.0   .     S
V18     V24    10.0   .     S
V18     V19    10.0   1_545     S
V18     V22    10.0   1_545     S
V18     V3    10.0   1_554     S
V19     V16    10.0   1_455     S
V19     V20    10.0   .     S
V19     V18    10.0   1_565     S
V19     V22    10.0   .     S
V19     V24    10.0   .     S
V19     V14    10.0   1_455     S
V19     V7    10.0   1_554     S
V20     V17    10.0   1_565     S
V20     V15    10.0   1_455     S
V20     V21    10.0   .     S
V20     V23    10.0   .     S
V20     V13    10.0   1_565     S
V21     V22    10.0   .     S
V21     V13    10.0   1_565     S
V21     V23    10.0   .     S
V22     V14    10.0   1_565     S
V22     V24    10.0   .     S
V22     V18    10.0   1_565     S
V22     V10    10.0   1_554     S
V23     V13    10.0   1_455     S
V23     V24    10.0   .     S
V23     V15    10.0   1_455     S
V24     V14    10.0   1_455     S
V24     V11    10.0   1_554     S
