data_wkg
_audit_creation_date              2020-02-04
_audit_creation_method            'Pymatgen'
_symmetry_space_group_name_H-M    'P1'
_symmetry_Int_Tables_number       1
loop_
_symmetry_equiv_pos_as_xyz
  x,y,z
_cell_length_a                    17.1785
_cell_length_b                    17.1785
_cell_length_c                    51.1057
_cell_angle_alpha                 90.0
_cell_angle_beta                 90.0
_cell_angle_gamma                 120.0
loop_
_atom_site_label
_atom_site_type_symbol
_atom_site_fract_x
_atom_site_fract_y
_atom_site_fract_z
V1     V     0.0682   0.3333   0.5125
V2     V     0.0682   0.7349   0.6542
V3     V     0.7349   0.0682   0.6792
V4     V     0.3333   0.0682   0.8208
V5     V     0.6667   0.7349   0.8458
V6     V     0.2651   0.3333   0.9875
V7     V     0.9318   0.6667   0.0125
V8     V     0.9318   0.2651   0.1542
V9     V     0.2651   0.9318   0.1792
V10     V     0.6667   0.9318   0.3208
V11     V     0.3333   0.2651   0.3458
V12     V     0.7349   0.6667   0.4875
loop_
_geom_bond_atom_site_label_1
_geom_bond_atom_site_label_2
_geom_bond_distance
_geom_bond_site_symmetry_2
_ccdc_geom_bond_type
V1     V3    10.0   1_455     S
V1     V2    10.0   .     S
V1     V12    10.0   1_455     S
V1     V11    10.0   .     S
V1     V12    10.0   .     S
V1     V12    10.0   1_445     S
V2     V12    10.0   1_455     S
V2     V3    10.0   1_455     S
V2     V3    10.0   1_465     S
V2     V4    10.0   1_565     S
V2     V3    10.0   1_565     S
V3     V1    10.0   1_655     S
V3     V2    10.0   1_655     S
V3     V2    10.0   1_645     S
V3     V5    10.0   1_545     S
V3     V4    10.0   .     S
V3     V2    10.0   1_545     S
V4     V2    10.0   1_545     S
V4     V5    10.0   1_545     S
V4     V5    10.0   1_445     S
V4     V6    10.0   .     S
V4     V5    10.0   .     S
V5     V3    10.0   1_565     S
V5     V4    10.0   1_565     S
V5     V4    10.0   1_665     S
V5     V7    10.0   1_556     S
V5     V6    10.0   .     S
V6     V7    10.0   1_556     S
V6     V7    10.0   1_446     S
V6     V8    10.0   1_456     S
V6     V7    10.0   1_456     S
V7     V5    10.0   1_554     S
V7     V6    10.0   1_554     S
V7     V6    10.0   1_664     S
V7     V9    10.0   1_655     S
V7     V8    10.0   .     S
V7     V6    10.0   1_654     S
V8     V6    10.0   1_654     S
V8     V9    10.0   1_655     S
V8     V9    10.0   1_645     S
V8     V10    10.0   1_545     S
V8     V9    10.0   1_545     S
V9     V7    10.0   1_455     S
V9     V8    10.0   1_455     S
V9     V8    10.0   1_465     S
V9     V11    10.0   1_565     S
V9     V10    10.0   .     S
V9     V8    10.0   1_565     S
V10     V8    10.0   1_565     S
V10     V11    10.0   1_565     S
V10     V11    10.0   1_665     S
V10     V12    10.0   .     S
V10     V11    10.0   .     S
V11     V9    10.0   1_545     S
V11     V10    10.0   1_545     S
V11     V10    10.0   1_445     S
V11     V12    10.0   .     S
V12     V2    10.0   1_655     S
V12     V1    10.0   1_655     S
V12     V1    10.0   1_665     S
