data_wlp
_audit_creation_date              2020-02-04
_audit_creation_method            'Pymatgen'
_symmetry_space_group_name_H-M    'P1'
_symmetry_Int_Tables_number       1
loop_
_symmetry_equiv_pos_as_xyz
  x,y,z
_cell_length_a                    67.1979
_cell_length_b                    67.1979
_cell_length_c                    12.5762
_cell_angle_alpha                 90.0
_cell_angle_beta                 90.0
_cell_angle_gamma                 120.0
loop_
_atom_site_label
_atom_site_type_symbol
_atom_site_fract_x
_atom_site_fract_y
_atom_site_fract_z
V1     V     0.7507   0.9332   0.5
V2     V     0.8175   0.0668   0.0
V3     V     0.5999   0.084   0.3333
V4     V     0.7335   0.1508   0.8333
V5     V     0.5159   0.916   0.1667
V6     V     0.5827   0.8492   0.6667
V7     V     0.8175   0.7507   0.5
V8     V     0.7507   0.8175   0.0
V9     V     0.5999   0.5159   0.8333
V10     V     0.7335   0.5827   0.3333
V11     V     0.5159   0.5999   0.6667
V12     V     0.5827   0.7335   0.1667
V13     V     0.2665   0.8492   0.1667
V14     V     0.4001   0.916   0.6667
V15     V     0.1825   0.9332   0.0
V16     V     0.2493   0.0668   0.5
V17     V     0.4173   0.1508   0.3333
V18     V     0.4841   0.084   0.8333
V19     V     0.2493   0.1825   0.0
V20     V     0.1825   0.2493   0.5
V21     V     0.4173   0.2665   0.8333
V22     V     0.4841   0.4001   0.3333
V23     V     0.2665   0.4173   0.6667
V24     V     0.4001   0.4841   0.1667
V25     V     0.8492   0.5827   0.8333
V26     V     0.916   0.5159   0.3333
V27     V     0.9332   0.7507   0.0
V28     V     0.0668   0.8175   0.5
V29     V     0.084   0.5999   0.1667
V30     V     0.1508   0.7335   0.6667
V31     V     0.9332   0.1825   0.5
V32     V     0.0668   0.2493   0.0
V33     V     0.084   0.4841   0.6667
V34     V     0.1508   0.4173   0.1667
V35     V     0.8492   0.2665   0.3333
V36     V     0.916   0.4001   0.8333
loop_
_geom_bond_atom_site_label_1
_geom_bond_atom_site_label_2
_geom_bond_distance
_geom_bond_site_symmetry_2
_ccdc_geom_bond_type
V1     V2    9.999   1_565     S
V1     V2    9.999   1_566     S
V1     V6    10.0   .     S
V1     V8    10.0   1_556     S
V1     V8    10.0   .     S
V2     V1    9.999   1_545     S
V2     V1    9.999   1_544     S
V2     V4    10.0   1_554     S
V2     V31    10.0   1_554     S
V2     V31    10.0   .     S
V3     V5    10.0   1_545     S
V3     V4    9.999   1_554     S
V3     V4    9.999   .     S
V3     V18    10.0   1_554     S
V3     V18    10.0   .     S
V4     V2    10.0   1_556     S
V4     V3    9.999   1_556     S
V4     V35    10.0   1_556     S
V4     V35    10.0   .     S
V5     V3    10.0   1_565     S
V5     V6    9.999   .     S
V5     V6    9.999   1_554     S
V5     V14    10.0   .     S
V5     V14    10.0   1_554     S
V6     V5    9.999   1_556     S
V6     V12    10.0   .     S
V6     V12    10.0   1_556     S
V7     V8    9.999   1_556     S
V7     V8    9.999   .     S
V7     V10    10.0   .     S
V7     V27    10.0   1_556     S
V7     V27    10.0   .     S
V8     V12    10.0   .     S
V8     V7    9.999   1_554     S
V8     V1    10.0   1_554     S
V9     V10    9.999   1_556     S
V9     V10    9.999   .     S
V9     V11    10.0   .     S
V9     V22    10.0   1_556     S
V9     V22    10.0   .     S
V10     V9    9.999   1_554     S
V10     V25    10.0   1_554     S
V10     V25    10.0   .     S
V11     V12    9.999   .     S
V11     V12    9.999   1_556     S
V11     V24    10.0   .     S
V11     V24    10.0   1_556     S
V12     V11    9.999   1_554     S
V12     V6    10.0   1_554     S
V13     V14    9.999   .     S
V13     V14    9.999   1_554     S
V13     V15    10.0   .     S
V13     V30    10.0   .     S
V13     V30    10.0   1_554     S
V14     V13    9.999   1_556     S
V14     V18    10.0   1_565     S
V14     V5    10.0   1_556     S
V15     V16    9.999   1_564     S
V15     V16    9.999   1_565     S
V15     V28    10.0   1_554     S
V15     V28    10.0   .     S
V16     V17    10.0   .     S
V16     V15    9.999   1_546     S
V16     V15    9.999   1_545     S
V16     V19    10.0   1_556     S
V16     V19    10.0   .     S
V17     V18    9.999   1_554     S
V17     V18    9.999   .     S
V17     V21    10.0   1_554     S
V17     V21    10.0   .     S
V18     V14    10.0   1_545     S
V18     V17    9.999   1_556     S
V18     V3    10.0   1_556     S
V19     V20    9.999   .     S
V19     V20    9.999   1_554     S
V19     V21    10.0   1_554     S
V19     V16    10.0   1_554     S
V20     V19    9.999   1_556     S
V20     V23    10.0   .     S
V20     V32    10.0   1_556     S
V20     V32    10.0   .     S
V21     V19    10.0   1_556     S
V21     V22    9.999   1_556     S
V21     V22    9.999   .     S
V21     V17    10.0   1_556     S
V22     V21    9.999   1_554     S
V22     V24    10.0   .     S
V22     V9    10.0   1_554     S
V23     V24    9.999   .     S
V23     V24    9.999   1_556     S
V23     V34    10.0   .     S
V23     V34    10.0   1_556     S
V24     V23    9.999   1_554     S
V24     V11    10.0   1_554     S
V25     V10    10.0   1_556     S
V25     V26    9.999   1_556     S
V25     V26    9.999   .     S
V25     V27    10.0   1_556     S
V26     V25    9.999   1_554     S
V26     V29    10.0   1_655     S
V26     V36    10.0   1_554     S
V26     V36    10.0   .     S
V27     V25    10.0   1_554     S
V27     V28    9.999   1_655     S
V27     V28    9.999   1_654     S
V27     V7    10.0   1_554     S
V28     V27    9.999   1_455     S
V28     V27    9.999   1_456     S
V28     V30    10.0   .     S
V28     V15    10.0   1_556     S
V29     V26    10.0   1_455     S
V29     V30    9.999   .     S
V29     V30    9.999   1_554     S
V29     V33    10.0   .     S
V29     V33    10.0   1_554     S
V30     V29    9.999   1_556     S
V30     V13    10.0   1_556     S
V31     V35    10.0   .     S
V31     V32    9.999   1_656     S
V31     V32    9.999   1_655     S
V31     V2    10.0   1_556     S
V32     V20    10.0   1_554     S
V32     V31    9.999   1_454     S
V32     V31    9.999   1_455     S
V32     V34    10.0   .     S
V33     V34    9.999   .     S
V33     V34    9.999   1_556     S
V33     V36    10.0   1_455     S
V33     V29    10.0   1_556     S
V34     V33    9.999   1_554     S
V34     V23    10.0   1_554     S
V35     V4    10.0   1_554     S
V35     V36    9.999   1_554     S
V35     V36    9.999   .     S
V36     V33    10.0   1_655     S
V36     V35    9.999   1_556     S
V36     V26    10.0   1_556     S
