data_wmj
_audit_creation_date              2020-02-04
_audit_creation_method            'Pymatgen'
_symmetry_space_group_name_H-M    'P1'
_symmetry_Int_Tables_number       1
loop_
_symmetry_equiv_pos_as_xyz
  x,y,z
_cell_length_a                    28.3437
_cell_length_b                    28.3437
_cell_length_c                    19.2218
_cell_angle_alpha                 90.0
_cell_angle_beta                 90.0
_cell_angle_gamma                 120.0
loop_
_atom_site_label
_atom_site_type_symbol
_atom_site_fract_x
_atom_site_fract_y
_atom_site_fract_z
V1     V     0.635   0.6912   0.0683
V2     V     0.6912   0.635   0.5683
V3     V     0.9437   0.635   0.9317
V4     V     0.3088   0.9437   0.0683
V5     V     0.0563   0.6912   0.4317
V6     V     0.9437   0.3088   0.5683
V7     V     0.6912   0.0563   0.9317
V8     V     0.3088   0.365   0.4317
V9     V     0.0563   0.365   0.0683
V10     V     0.365   0.0563   0.5683
V11     V     0.365   0.3088   0.9317
V12     V     0.635   0.9437   0.4317
loop_
_geom_bond_atom_site_label_1
_geom_bond_atom_site_label_2
_geom_bond_distance
_geom_bond_site_symmetry_2
_ccdc_geom_bond_type
V1     V3    10.0   1_554     S
V1     V2    10.0   1_554     S
V1     V12    10.0   .     S
V1     V2    10.0   .     S
V1     V7    10.0   1_564     S
V1     V11    10.0   1_554     S
V2     V1    10.0   1_556     S
V2     V12    10.0   .     S
V2     V3    10.0   .     S
V2     V5    10.0   1_655     S
V2     V8    10.0   .     S
V3     V1    10.0   1_556     S
V3     V5    10.0   1_655     S
V3     V4    10.0   1_656     S
V3     V5    10.0   1_656     S
V3     V9    10.0   1_656     S
V4     V3    10.0   1_454     S
V4     V10    10.0   1_565     S
V4     V5    10.0   .     S
V4     V11    10.0   1_564     S
V4     V10    10.0   1_564     S
V4     V7    10.0   1_564     S
V5     V2    10.0   1_455     S
V5     V3    10.0   1_455     S
V5     V3    10.0   1_454     S
V5     V10    10.0   1_565     S
V5     V6    10.0   1_455     S
V6     V9    10.0   1_656     S
V6     V7    10.0   .     S
V6     V12    10.0   1_545     S
V6     V8    10.0   1_655     S
V6     V9    10.0   1_655     S
V6     V5    10.0   1_655     S
V7     V1    10.0   1_546     S
V7     V12    10.0   1_546     S
V7     V9    10.0   1_656     S
V7     V12    10.0   1_545     S
V7     V4    10.0   1_546     S
V8     V6    10.0   1_455     S
V8     V9    10.0   .     S
V8     V11    10.0   1_554     S
V8     V10    10.0   .     S
V8     V11    10.0   .     S
V9     V7    10.0   1_454     S
V9     V6    10.0   1_454     S
V9     V6    10.0   1_455     S
V9     V11    10.0   1_554     S
V9     V3    10.0   1_454     S
V10     V5    10.0   1_545     S
V10     V4    10.0   1_545     S
V10     V4    10.0   1_546     S
V10     V11    10.0   .     S
V10     V12    10.0   1_545     S
V11     V9    10.0   1_556     S
V11     V8    10.0   1_556     S
V11     V4    10.0   1_546     S
V11     V1    10.0   1_556     S
V12     V7    10.0   1_564     S
V12     V6    10.0   1_565     S
V12     V7    10.0   1_565     S
V12     V10    10.0   1_565     S
