data_wni
_audit_creation_date              2020-02-04
_audit_creation_method            'Pymatgen'
_symmetry_space_group_name_H-M    'P1'
_symmetry_Int_Tables_number       1
loop_
_symmetry_equiv_pos_as_xyz
  x,y,z
_cell_length_a                    18.0255
_cell_length_b                    18.0255
_cell_length_c                    18.9737
_cell_angle_alpha                 90.0
_cell_angle_beta                 90.0
_cell_angle_gamma                 120.0
loop_
_atom_site_label
_atom_site_type_symbol
_atom_site_fract_x
_atom_site_fract_y
_atom_site_fract_z
V1     V     0.4052   0.1013   0.9167
V2     V     0.1013   0.4052   0.0833
V3     V     0.5948   0.6961   0.75
V4     V     0.6961   0.5948   0.25
V5     V     0.3039   0.8987   0.4167
V6     V     0.8987   0.3039   0.5833
loop_
_geom_bond_atom_site_label_1
_geom_bond_atom_site_label_2
_geom_bond_distance
_geom_bond_site_symmetry_2
_ccdc_geom_bond_type
V1     V4    10.0   1_556     S
V1     V3    10.0   1_545     S
V1     V5    10.0   1_546     S
V1     V2    10.0   1_556     S
V1     V3    10.0   .     S
V1     V5    10.0   1_545     S
V1     V6    10.0   .     S
V2     V3    10.0   1_554     S
V2     V4    10.0   1_455     S
V2     V6    10.0   1_455     S
V2     V1    10.0   1_554     S
V2     V4    10.0   .     S
V2     V5    10.0   .     S
V2     V6    10.0   1_454     S
V3     V1    10.0   1_565     S
V3     V2    10.0   1_556     S
V3     V5    10.0   .     S
V3     V4    10.0   1_556     S
V3     V4    10.0   .     S
V3     V6    10.0   1_565     S
V4     V1    10.0   1_554     S
V4     V2    10.0   1_655     S
V4     V3    10.0   1_554     S
V4     V6    10.0   .     S
V4     V5    10.0   1_655     S
V5     V1    10.0   1_564     S
V5     V6    10.0   1_565     S
V5     V1    10.0   1_565     S
V5     V4    10.0   1_455     S
V5     V6    10.0   1_455     S
V6     V2    10.0   1_655     S
V6     V5    10.0   1_545     S
V6     V5    10.0   1_655     S
V6     V2    10.0   1_656     S
V6     V3    10.0   1_545     S
