data_xas
_audit_creation_date              2020-02-04
_audit_creation_method            'Pymatgen'
_symmetry_space_group_name_H-M    'P1'
_symmetry_Int_Tables_number       1
loop_
_symmetry_equiv_pos_as_xyz
  x,y,z
_cell_length_a                    40.0
_cell_length_b                    40.0
_cell_length_c                    40.0
_cell_angle_alpha                 90.0
_cell_angle_beta                 90.0
_cell_angle_gamma                 90.0
loop_
_atom_site_label
_atom_site_type_symbol
_atom_site_fract_x
_atom_site_fract_y
_atom_site_fract_z
V1     V     0.125   0.125   0.375
Er2     Er     0.125   0.125   0.625
V3     V     0.125   0.125   0.875
V4     V     0.375   0.125   0.625
V5     V     0.125   0.875   0.625
V6     V     0.125   0.375   0.625
V7     V     0.875   0.125   0.625
V8     V     0.125   0.875   0.375
Er9     Er     0.875   0.875   0.375
V10     V     0.875   0.875   0.125
V11     V     0.875   0.875   0.625
V12     V     0.875   0.625   0.375
V13     V     0.625   0.875   0.375
V14     V     0.875   0.125   0.375
V15     V     0.875   0.375   0.625
Er16     Er     0.875   0.375   0.875
V17     V     0.875   0.375   0.125
V18     V     0.875   0.625   0.875
V19     V     0.125   0.375   0.875
V20     V     0.875   0.125   0.875
V21     V     0.625   0.375   0.875
V22     V     0.625   0.125   0.875
Er23     Er     0.625   0.125   0.125
V24     V     0.625   0.125   0.375
V25     V     0.375   0.125   0.125
V26     V     0.625   0.375   0.125
V27     V     0.875   0.125   0.125
V28     V     0.625   0.875   0.125
V29     V     0.375   0.125   0.875
Er30     Er     0.375   0.875   0.875
V31     V     0.375   0.875   0.125
V32     V     0.375   0.875   0.625
V33     V     0.625   0.875   0.875
V34     V     0.375   0.625   0.875
V35     V     0.125   0.875   0.875
V36     V     0.875   0.625   0.125
Er37     Er     0.125   0.625   0.125
V38     V     0.125   0.375   0.125
V39     V     0.125   0.875   0.125
V40     V     0.125   0.625   0.375
V41     V     0.125   0.625   0.875
V42     V     0.375   0.625   0.125
V43     V     0.375   0.125   0.375
Er44     Er     0.375   0.375   0.375
V45     V     0.625   0.375   0.375
V46     V     0.375   0.375   0.625
V47     V     0.375   0.375   0.125
V48     V     0.375   0.625   0.375
V49     V     0.125   0.375   0.375
V50     V     0.875   0.625   0.625
Er51     Er     0.625   0.625   0.625
V52     V     0.375   0.625   0.625
V53     V     0.625   0.625   0.375
V54     V     0.625   0.625   0.875
V55     V     0.625   0.875   0.625
V56     V     0.625   0.375   0.625
loop_
_geom_bond_atom_site_label_1
_geom_bond_atom_site_label_2
_geom_bond_distance
_geom_bond_site_symmetry_2
_ccdc_geom_bond_type
V1     Er2    10.0   .     S
V1     V8    10.0   1_545     S
V1     V14    10.0   1_455     S
V1     V43    10.0   .     S
V1     V49    10.0   .     S
Er2     V3    10.0   .     S
Er2     V4    10.0   .     S
Er2     V5    10.0   1_545     S
Er2     V6    10.0   .     S
Er2     V7    10.0   1_455     S
V3     V19    10.0   .     S
V3     V29    10.0   .     S
V3     V20    10.0   1_455     S
V3     V35    10.0   1_545     S
V4     V43    10.0   .     S
V4     V29    10.0   .     S
V4     V32    10.0   1_545     S
V4     V46    10.0   .     S
V5     Er2    10.0   1_565     S
V5     V11    10.0   1_455     S
V5     V32    10.0   .     S
V5     V35    10.0   .     S
V5     V8    10.0   .     S
V6     V15    10.0   1_455     S
V6     V19    10.0   .     S
V6     V49    10.0   .     S
V6     V46    10.0   .     S
V7     Er2    10.0   1_655     S
V7     V11    10.0   1_545     S
V7     V20    10.0   .     S
V7     V14    10.0   .     S
V7     V15    10.0   .     S
V8     V1    10.0   1_565     S
V8     Er9    10.0   1_455     S
V8     V40    10.0   .     S
V8     V39    10.0   .     S
Er9     V8    10.0   1_655     S
Er9     V10    10.0   .     S
Er9     V11    10.0   .     S
Er9     V12    10.0   .     S
Er9     V13    10.0   .     S
Er9     V14    10.0   1_565     S
V10     V28    10.0   .     S
V10     V36    10.0   .     S
V10     V39    10.0   1_655     S
V10     V27    10.0   1_565     S
V11     V5    10.0   1_655     S
V11     V7    10.0   1_565     S
V11     V55    10.0   .     S
V11     V50    10.0   .     S
V12     V36    10.0   .     S
V12     V50    10.0   .     S
V12     V40    10.0   1_655     S
V12     V53    10.0   .     S
V13     V24    10.0   1_565     S
V13     V53    10.0   .     S
V13     V55    10.0   .     S
V13     V28    10.0   .     S
V14     Er9    10.0   1_545     S
V14     V1    10.0   1_655     S
V14     V24    10.0   .     S
V14     V27    10.0   .     S
V15     V6    10.0   1_655     S
V15     Er16    10.0   .     S
V15     V56    10.0   .     S
V15     V50    10.0   .     S
Er16     V17    10.0   1_556     S
Er16     V18    10.0   .     S
Er16     V19    10.0   1_655     S
Er16     V20    10.0   .     S
Er16     V21    10.0   .     S
V17     Er16    10.0   1_554     S
V17     V26    10.0   .     S
V17     V38    10.0   1_655     S
V17     V36    10.0   .     S
V17     V27    10.0   .     S
V18     V50    10.0   .     S
V18     V36    10.0   1_556     S
V18     V41    10.0   1_655     S
V18     V54    10.0   .     S
V19     Er16    10.0   1_455     S
V19     V38    10.0   1_556     S
V19     V41    10.0   .     S
V20     V22    10.0   .     S
V20     V27    10.0   1_556     S
V20     V3    10.0   1_655     S
V21     V22    10.0   .     S
V21     V54    10.0   .     S
V21     V26    10.0   1_556     S
V21     V56    10.0   .     S
V22     Er23    10.0   1_556     S
V22     V33    10.0   1_545     S
V22     V29    10.0   .     S
Er23     V22    10.0   1_554     S
Er23     V24    10.0   .     S
Er23     V25    10.0   .     S
Er23     V26    10.0   .     S
Er23     V27    10.0   .     S
Er23     V28    10.0   1_545     S
V24     V13    10.0   1_545     S
V24     V43    10.0   .     S
V24     V45    10.0   .     S
V25     V29    10.0   1_554     S
V25     V43    10.0   .     S
V25     V31    10.0   1_545     S
V25     V47    10.0   .     S
V26     V47    10.0   .     S
V26     V21    10.0   1_554     S
V26     V45    10.0   .     S
V27     V20    10.0   1_554     S
V27     V10    10.0   1_545     S
V28     Er23    10.0   1_565     S
V28     V33    10.0   1_554     S
V28     V31    10.0   .     S
V29     V25    10.0   1_556     S
V29     Er30    10.0   1_545     S
Er30     V29    10.0   1_565     S
Er30     V31    10.0   1_556     S
Er30     V32    10.0   .     S
Er30     V33    10.0   .     S
Er30     V34    10.0   .     S
Er30     V35    10.0   .     S
V31     Er30    10.0   1_554     S
V31     V39    10.0   .     S
V31     V42    10.0   .     S
V31     V25    10.0   1_565     S
V32     V4    10.0   1_565     S
V32     V55    10.0   .     S
V32     V52    10.0   .     S
V33     V28    10.0   1_556     S
V33     V55    10.0   .     S
V33     V22    10.0   1_565     S
V33     V54    10.0   .     S
V34     V41    10.0   .     S
V34     V54    10.0   .     S
V34     V42    10.0   1_556     S
V34     V52    10.0   .     S
V35     V39    10.0   1_556     S
V35     V3    10.0   1_565     S
V35     V41    10.0   .     S
V36     Er37    10.0   1_655     S
V36     V18    10.0   1_554     S
Er37     V36    10.0   1_455     S
Er37     V38    10.0   .     S
Er37     V39    10.0   .     S
Er37     V40    10.0   .     S
Er37     V41    10.0   1_554     S
Er37     V42    10.0   .     S
V38     V17    10.0   1_455     S
V38     V49    10.0   .     S
V38     V19    10.0   1_554     S
V38     V47    10.0   .     S
V39     V10    10.0   1_455     S
V39     V35    10.0   1_554     S
V40     V12    10.0   1_455     S
V40     V48    10.0   .     S
V40     V49    10.0   .     S
V41     Er37    10.0   1_556     S
V41     V18    10.0   1_455     S
V42     V34    10.0   1_554     S
V42     V48    10.0   .     S
V42     V47    10.0   .     S
V43     Er44    10.0   .     S
Er44     V45    10.0   .     S
Er44     V46    10.0   .     S
Er44     V47    10.0   .     S
Er44     V48    10.0   .     S
Er44     V49    10.0   .     S
V45     V53    10.0   .     S
V45     V56    10.0   .     S
V46     V52    10.0   .     S
V46     V56    10.0   .     S
V48     V52    10.0   .     S
V48     V53    10.0   .     S
V50     Er51    10.0   .     S
Er51     V52    10.0   .     S
Er51     V53    10.0   .     S
Er51     V54    10.0   .     S
Er51     V55    10.0   .     S
Er51     V56    10.0   .     S
