data_xbfa
_audit_creation_date              2020-02-04
_audit_creation_method            'Pymatgen'
_symmetry_space_group_name_H-M    'P1'
_symmetry_Int_Tables_number       1
loop_
_symmetry_equiv_pos_as_xyz
  x,y,z
_cell_length_a                    108.6144
_cell_length_b                    108.6144
_cell_length_c                    108.6144
_cell_angle_alpha                 90.0
_cell_angle_beta                 90.0
_cell_angle_gamma                 90.0
loop_
_atom_site_label
_atom_site_type_symbol
_atom_site_fract_x
_atom_site_fract_y
_atom_site_fract_z
V1     V     0.454   0.6111   0.3889
V2     V     0.546   0.6111   0.3889
V3     V     0.6111   0.3889   0.454
V4     V     0.6111   0.3889   0.546
V5     V     0.6111   0.546   0.3889
V6     V     0.6111   0.454   0.3889
V7     V     0.6111   0.1111   0.046
V8     V     0.6111   0.1111   0.954
V9     V     0.046   0.6111   0.1111
V10     V     0.954   0.6111   0.1111
V11     V     0.1111   0.046   0.6111
V12     V     0.1111   0.954   0.6111
V13     V     0.1111   0.6111   0.046
V14     V     0.1111   0.6111   0.954
V15     V     0.6111   0.046   0.1111
V16     V     0.6111   0.954   0.1111
V17     V     0.046   0.1111   0.6111
V18     V     0.954   0.1111   0.6111
V19     V     0.546   0.3889   0.3889
V20     V     0.454   0.3889   0.3889
V21     V     0.546   0.6111   0.6111
V22     V     0.454   0.6111   0.6111
V23     V     0.6111   0.6111   0.546
V24     V     0.6111   0.6111   0.454
V25     V     0.3889   0.3889   0.546
V26     V     0.3889   0.3889   0.454
V27     V     0.3889   0.454   0.3889
V28     V     0.3889   0.546   0.3889
V29     V     0.6111   0.454   0.6111
V30     V     0.6111   0.546   0.6111
V31     V     0.8889   0.6111   0.046
V32     V     0.8889   0.6111   0.954
V33     V     0.6111   0.046   0.8889
V34     V     0.6111   0.954   0.8889
V35     V     0.046   0.8889   0.6111
V36     V     0.954   0.8889   0.6111
V37     V     0.6111   0.8889   0.046
V38     V     0.6111   0.8889   0.954
V39     V     0.046   0.6111   0.8889
V40     V     0.954   0.6111   0.8889
V41     V     0.8889   0.046   0.6111
V42     V     0.8889   0.954   0.6111
Er43     Er     0.454   0.7174   0.2826
Er44     Er     0.546   0.7174   0.2826
Er45     Er     0.546   0.7826   0.2174
Er46     Er     0.454   0.7826   0.2174
Er47     Er     0.546   0.2826   0.2826
Er48     Er     0.454   0.2826   0.2826
Er49     Er     0.454   0.2174   0.2174
Er50     Er     0.546   0.2174   0.2174
Er51     Er     0.546   0.7174   0.7174
Er52     Er     0.454   0.7174   0.7174
Er53     Er     0.454   0.7826   0.7826
Er54     Er     0.546   0.7826   0.7826
Er55     Er     0.454   0.2826   0.7174
Er56     Er     0.546   0.2826   0.7174
Er57     Er     0.546   0.2174   0.7826
Er58     Er     0.454   0.2174   0.7826
Er59     Er     0.7174   0.2826   0.454
Er60     Er     0.7174   0.2826   0.546
Er61     Er     0.7826   0.2174   0.454
Er62     Er     0.7826   0.2174   0.546
Ti63     Ti     0.5992   0.3357   0.3357
Ti64     Ti     0.6643   0.3357   0.4008
Ti65     Ti     0.6643   0.4008   0.3357
Er66     Er     0.7174   0.546   0.2826
Er67     Er     0.7174   0.454   0.2826
Er68     Er     0.7826   0.454   0.2174
Er69     Er     0.7826   0.546   0.2174
Ti70     Ti     0.6643   0.6643   0.4008
Ti71     Ti     0.5992   0.6643   0.3357
Ti72     Ti     0.6643   0.5992   0.3357
Er73     Er     0.7174   0.7174   0.546
Er74     Er     0.7174   0.7174   0.454
Er75     Er     0.7826   0.7826   0.454
Er76     Er     0.7826   0.7826   0.546
Er77     Er     0.2826   0.2826   0.546
Er78     Er     0.2826   0.2826   0.454
Er79     Er     0.2174   0.2174   0.454
Er80     Er     0.2174   0.2174   0.546
Er81     Er     0.2826   0.7174   0.454
Er82     Er     0.2826   0.7174   0.546
Er83     Er     0.2174   0.7826   0.546
Er84     Er     0.2174   0.7826   0.454
Ti85     Ti     0.5992   0.6643   0.6643
Ti86     Ti     0.6643   0.6643   0.5992
Ti87     Ti     0.6643   0.5992   0.6643
Er88     Er     0.7174   0.454   0.7174
Er89     Er     0.7174   0.546   0.7174
Er90     Er     0.7826   0.546   0.7826
Er91     Er     0.7826   0.454   0.7826
Er92     Er     0.2826   0.546   0.7174
Er93     Er     0.2826   0.454   0.7174
Er94     Er     0.2174   0.454   0.7826
Er95     Er     0.2174   0.546   0.7826
Ti96     Ti     0.6643   0.4008   0.6643
Ti97     Ti     0.6643   0.3357   0.5992
Ti98     Ti     0.5992   0.3357   0.6643
V99     V     0.454   0.3889   0.6111
V100     V     0.546   0.3889   0.6111
Ti101     Ti     0.3357   0.3357   0.5992
Ti102     Ti     0.4008   0.3357   0.6643
Ti103     Ti     0.3357   0.4008   0.6643
V104     V     0.3889   0.546   0.6111
V105     V     0.3889   0.454   0.6111
Ti106     Ti     0.4008   0.6643   0.6643
Ti107     Ti     0.3357   0.5992   0.6643
Ti108     Ti     0.3357   0.6643   0.5992
V109     V     0.3889   0.6111   0.454
V110     V     0.3889   0.6111   0.546
Ti111     Ti     0.3357   0.5992   0.3357
Ti112     Ti     0.4008   0.6643   0.3357
Ti113     Ti     0.3357   0.6643   0.4008
Ti114     Ti     0.4008   0.3357   0.3357
Ti115     Ti     0.3357   0.3357   0.4008
Ti116     Ti     0.3357   0.4008   0.3357
Er117     Er     0.2826   0.454   0.2826
Er118     Er     0.2826   0.546   0.2826
Er119     Er     0.2174   0.546   0.2174
Er120     Er     0.2174   0.454   0.2174
V121     V     0.1111   0.3889   0.046
V122     V     0.1111   0.3889   0.954
V123     V     0.3889   0.046   0.1111
V124     V     0.3889   0.954   0.1111
V125     V     0.3889   0.1111   0.046
V126     V     0.3889   0.1111   0.954
V127     V     0.046   0.3889   0.1111
V128     V     0.954   0.3889   0.1111
V129     V     0.1111   0.046   0.3889
V130     V     0.1111   0.954   0.3889
V131     V     0.046   0.1111   0.3889
V132     V     0.954   0.1111   0.3889
Ti133     Ti     0.4008   0.1643   0.1643
Ti134     Ti     0.3357   0.1643   0.0992
Ti135     Ti     0.3357   0.0992   0.1643
Ti136     Ti     0.1643   0.4008   0.1643
Ti137     Ti     0.1643   0.3357   0.0992
Ti138     Ti     0.0992   0.3357   0.1643
Ti139     Ti     0.1643   0.1643   0.4008
Ti140     Ti     0.1643   0.0992   0.3357
Ti141     Ti     0.0992   0.1643   0.3357
V142     V     0.546   0.1111   0.1111
V143     V     0.454   0.1111   0.1111
V144     V     0.1111   0.1111   0.546
V145     V     0.1111   0.1111   0.454
V146     V     0.1111   0.546   0.1111
V147     V     0.1111   0.454   0.1111
Ti148     Ti     0.5992   0.1643   0.1643
Ti149     Ti     0.6643   0.0992   0.1643
Ti150     Ti     0.6643   0.1643   0.0992
Ti151     Ti     0.1643   0.5992   0.1643
Ti152     Ti     0.1643   0.6643   0.0992
Ti153     Ti     0.0992   0.6643   0.1643
Ti154     Ti     0.1643   0.1643   0.5992
Ti155     Ti     0.0992   0.1643   0.6643
Ti156     Ti     0.1643   0.0992   0.6643
Er157     Er     0.2174   0.2826   0.046
Er158     Er     0.2174   0.2826   0.954
Er159     Er     0.2826   0.2174   0.046
Er160     Er     0.2826   0.2174   0.954
Er161     Er     0.046   0.2174   0.2826
Er162     Er     0.954   0.2174   0.2826
Er163     Er     0.046   0.2826   0.2174
Er164     Er     0.954   0.2826   0.2174
Er165     Er     0.2826   0.046   0.2174
Er166     Er     0.2826   0.954   0.2174
Er167     Er     0.2174   0.046   0.2826
Er168     Er     0.2174   0.954   0.2826
V169     V     0.3889   0.8889   0.046
V170     V     0.3889   0.8889   0.954
V171     V     0.046   0.3889   0.8889
V172     V     0.954   0.3889   0.8889
V173     V     0.8889   0.046   0.3889
V174     V     0.8889   0.954   0.3889
V175     V     0.8889   0.3889   0.046
V176     V     0.8889   0.3889   0.954
V177     V     0.3889   0.046   0.8889
V178     V     0.3889   0.954   0.8889
V179     V     0.046   0.8889   0.3889
V180     V     0.954   0.8889   0.3889
Ti181     Ti     0.4008   0.8357   0.1643
Ti182     Ti     0.3357   0.9008   0.1643
Ti183     Ti     0.3357   0.8357   0.0992
Ti184     Ti     0.8357   0.4008   0.1643
Ti185     Ti     0.9008   0.3357   0.1643
Ti186     Ti     0.8357   0.3357   0.0992
V187     V     0.546   0.8889   0.1111
V188     V     0.454   0.8889   0.1111
V189     V     0.8889   0.546   0.1111
V190     V     0.8889   0.454   0.1111
Er191     Er     0.7174   0.2174   0.046
Er192     Er     0.7174   0.2174   0.954
Er193     Er     0.7826   0.2826   0.046
Er194     Er     0.7826   0.2826   0.954
Er195     Er     0.7174   0.046   0.2174
Er196     Er     0.7174   0.954   0.2174
Er197     Er     0.7826   0.046   0.2826
Er198     Er     0.7826   0.954   0.2826
Ti199     Ti     0.5992   0.8357   0.1643
Ti200     Ti     0.6643   0.9008   0.1643
Ti201     Ti     0.6643   0.8357   0.0992
Er202     Er     0.046   0.7174   0.2174
Er203     Er     0.954   0.7174   0.2174
Er204     Er     0.046   0.7826   0.2826
Er205     Er     0.954   0.7826   0.2826
Er206     Er     0.2174   0.046   0.7174
Er207     Er     0.2174   0.954   0.7174
Er208     Er     0.2826   0.046   0.7826
Er209     Er     0.2826   0.954   0.7826
Ti210     Ti     0.8357   0.5992   0.1643
Ti211     Ti     0.9008   0.6643   0.1643
Ti212     Ti     0.8357   0.6643   0.0992
Er213     Er     0.2174   0.7174   0.046
Er214     Er     0.2174   0.7174   0.954
Er215     Er     0.2826   0.7826   0.046
Er216     Er     0.2826   0.7826   0.954
Ti217     Ti     0.1643   0.4008   0.8357
Ti218     Ti     0.1643   0.3357   0.9008
Ti219     Ti     0.0992   0.3357   0.8357
V220     V     0.1111   0.546   0.8889
V221     V     0.1111   0.454   0.8889
Ti222     Ti     0.1643   0.5992   0.8357
Ti223     Ti     0.1643   0.6643   0.9008
Ti224     Ti     0.0992   0.6643   0.8357
Ti225     Ti     0.4008   0.1643   0.8357
Ti226     Ti     0.3357   0.1643   0.9008
Ti227     Ti     0.3357   0.0992   0.8357
V228     V     0.546   0.1111   0.8889
V229     V     0.454   0.1111   0.8889
Ti230     Ti     0.5992   0.1643   0.8357
Ti231     Ti     0.6643   0.1643   0.9008
Ti232     Ti     0.6643   0.0992   0.8357
Ti233     Ti     0.1643   0.8357   0.4008
Ti234     Ti     0.1643   0.9008   0.3357
Ti235     Ti     0.0992   0.8357   0.3357
V236     V     0.1111   0.8889   0.546
V237     V     0.1111   0.8889   0.454
Ti238     Ti     0.1643   0.8357   0.5992
Ti239     Ti     0.1643   0.9008   0.6643
Ti240     Ti     0.0992   0.8357   0.6643
Er241     Er     0.7826   0.7174   0.046
Er242     Er     0.7826   0.7174   0.954
Er243     Er     0.7174   0.7826   0.046
Er244     Er     0.7174   0.7826   0.954
Ti245     Ti     0.4008   0.8357   0.8357
Ti246     Ti     0.3357   0.8357   0.9008
Ti247     Ti     0.3357   0.9008   0.8357
V248     V     0.546   0.8889   0.8889
V249     V     0.454   0.8889   0.8889
Ti250     Ti     0.5992   0.8357   0.8357
Ti251     Ti     0.6643   0.8357   0.9008
Ti252     Ti     0.6643   0.9008   0.8357
Ti253     Ti     0.8357   0.4008   0.8357
Ti254     Ti     0.8357   0.3357   0.9008
Ti255     Ti     0.9008   0.3357   0.8357
V256     V     0.8889   0.546   0.8889
V257     V     0.8889   0.454   0.8889
Ti258     Ti     0.8357   0.5992   0.8357
Ti259     Ti     0.8357   0.6643   0.9008
Ti260     Ti     0.9008   0.6643   0.8357
Er261     Er     0.046   0.7174   0.7826
Er262     Er     0.954   0.7174   0.7826
Er263     Er     0.046   0.7826   0.7174
Er264     Er     0.954   0.7826   0.7174
Ti265     Ti     0.8357   0.8357   0.4008
Ti266     Ti     0.8357   0.9008   0.3357
Ti267     Ti     0.9008   0.8357   0.3357
V268     V     0.8889   0.8889   0.546
V269     V     0.8889   0.8889   0.454
Ti270     Ti     0.8357   0.8357   0.5992
Ti271     Ti     0.9008   0.8357   0.6643
Ti272     Ti     0.8357   0.9008   0.6643
Er273     Er     0.7174   0.046   0.7826
Er274     Er     0.7174   0.954   0.7826
Er275     Er     0.7826   0.046   0.7174
Er276     Er     0.7826   0.954   0.7174
Ti277     Ti     0.8357   0.1643   0.5992
Ti278     Ti     0.9008   0.1643   0.6643
Ti279     Ti     0.8357   0.0992   0.6643
Er280     Er     0.046   0.2174   0.7174
Er281     Er     0.954   0.2174   0.7174
Er282     Er     0.046   0.2826   0.7826
Er283     Er     0.954   0.2826   0.7826
V284     V     0.8889   0.1111   0.454
V285     V     0.8889   0.1111   0.546
Ti286     Ti     0.8357   0.1643   0.4008
Ti287     Ti     0.8357   0.0992   0.3357
Ti288     Ti     0.9008   0.1643   0.3357
loop_
_geom_bond_atom_site_label_1
_geom_bond_atom_site_label_2
_geom_bond_distance
_geom_bond_site_symmetry_2
_ccdc_geom_bond_type
V1     V109    10.001   .     S
V1     V28    10.001   .     S
V1     V2    9.999   .     S
V1     Ti112    10.0   .     S
V2     V24    10.001   .     S
V2     V5    10.001   .     S
V2     Ti71    10.0   .     S
V3     V6    10.001   .     S
V3     V19    10.001   .     S
V3     V4    9.999   .     S
V3     Ti64    10.0   .     S
V4     V29    10.001   .     S
V4     V100    10.001   .     S
V4     Ti97    10.0   .     S
V5     V24    10.001   .     S
V5     V6    9.999   .     S
V5     Ti72    10.0   .     S
V6     V19    10.001   .     S
V6     Ti65    10.0   .     S
V7     V15    10.001   .     S
V7     V142    10.001   .     S
V7     V8    9.999   1_554     S
V7     Ti150    10.0   .     S
V8     V33    10.001   .     S
V8     V228    10.001   .     S
V8     V7    9.999   1_556     S
V8     Ti231    10.0   .     S
V9     V13    10.001   .     S
V9     V146    10.001   .     S
V9     V10    9.999   1_455     S
V9     Ti153    10.0   .     S
V10     V31    10.001   .     S
V10     V189    10.001   .     S
V10     V9    9.999   1_655     S
V10     Ti211    10.0   .     S
V11     V17    10.001   .     S
V11     V144    10.001   .     S
V11     V12    9.999   1_545     S
V11     Ti156    10.0   .     S
V12     V35    10.001   .     S
V12     V236    10.001   .     S
V12     V11    9.999   1_565     S
V12     Ti239    10.0   .     S
V13     V146    10.001   .     S
V13     V14    9.999   1_554     S
V13     Ti152    10.0   .     S
V14     V39    10.001   .     S
V14     V220    10.001   .     S
V14     V13    9.999   1_556     S
V14     Ti223    10.0   .     S
V15     V142    10.001   .     S
V15     V16    9.999   1_545     S
V15     Ti149    10.0   .     S
V16     V37    10.001   .     S
V16     V187    10.001   .     S
V16     V15    9.999   1_565     S
V16     Ti200    10.0   .     S
V17     V144    10.001   .     S
V17     V18    9.999   1_455     S
V17     Ti155    10.0   .     S
V18     V41    10.001   .     S
V18     V285    10.001   .     S
V18     V17    9.999   1_655     S
V18     Ti278    10.0   .     S
V19     V20    9.999   .     S
V19     Ti63    10.0   .     S
V20     V26    10.001   .     S
V20     V27    10.001   .     S
V20     Ti114    10.0   .     S
V21     V23    10.001   .     S
V21     V30    10.001   .     S
V21     V22    9.999   .     S
V21     Ti85    10.0   .     S
V22     V110    10.001   .     S
V22     V104    10.001   .     S
V22     Ti106    10.0   .     S
V23     V30    10.001   .     S
V23     V24    9.999   .     S
V23     Ti86    10.0   .     S
V24     Ti70    10.0   .     S
V25     V105    10.001   .     S
V25     V99    10.001   .     S
V25     V26    9.999   .     S
V25     Ti101    10.0   .     S
V26     V27    10.001   .     S
V26     Ti115    10.0   .     S
V27     V28    9.999   .     S
V27     Ti116    10.0   .     S
V28     V109    10.001   .     S
V28     Ti111    10.0   .     S
V29     V100    10.001   .     S
V29     V30    9.999   .     S
V29     Ti96    10.0   .     S
V30     Ti87    10.0   .     S
V31     V189    10.001   .     S
V31     V32    9.999   1_554     S
V31     Ti212    10.0   .     S
V32     V40    10.001   .     S
V32     V256    10.001   .     S
V32     V31    9.999   1_556     S
V32     Ti259    10.0   .     S
V33     V228    10.001   .     S
V33     V34    9.999   1_545     S
V33     Ti232    10.0   .     S
V34     V38    10.001   .     S
V34     V248    10.001   .     S
V34     V33    9.999   1_565     S
V34     Ti252    10.0   .     S
V35     V236    10.001   .     S
V35     V36    9.999   1_455     S
V35     Ti240    10.0   .     S
V36     V42    10.001   .     S
V36     V268    10.001   .     S
V36     V35    9.999   1_655     S
V36     Ti271    10.0   .     S
V37     V187    10.001   .     S
V37     V38    9.999   1_554     S
V37     Ti201    10.0   .     S
V38     V248    10.001   .     S
V38     V37    9.999   1_556     S
V38     Ti251    10.0   .     S
V39     V220    10.001   .     S
V39     V40    9.999   1_455     S
V39     Ti224    10.0   .     S
V40     V256    10.001   .     S
V40     V39    9.999   1_655     S
V40     Ti260    10.0   .     S
V41     V285    10.001   .     S
V41     V42    9.999   1_545     S
V41     Ti279    10.0   .     S
V42     V268    10.001   .     S
V42     V41    9.999   1_565     S
V42     Ti272    10.0   .     S
Er43     Er44    9.999   .     S
Er43     Er46    10.0   .     S
Er43     Ti112    10.001   .     S
Er44     Er45    10.0   .     S
Er44     Ti71    10.001   .     S
Er45     Er46    9.999   .     S
Er45     Ti199    10.001   .     S
Er46     Ti181    10.001   .     S
Er47     Er48    9.999   .     S
Er47     Er50    10.0   .     S
Er47     Ti63    10.001   .     S
Er48     Er49    10.0   .     S
Er48     Ti114    10.001   .     S
Er49     Er50    9.999   .     S
Er49     Ti133    10.001   .     S
Er50     Ti148    10.001   .     S
Er51     Er52    9.999   .     S
Er51     Er54    10.0   .     S
Er51     Ti85    10.001   .     S
Er52     Er53    10.0   .     S
Er52     Ti106    10.001   .     S
Er53     Er54    9.999   .     S
Er53     Ti245    10.001   .     S
Er54     Ti250    10.001   .     S
Er55     Er56    9.999   .     S
Er55     Er58    10.0   .     S
Er55     Ti102    10.001   .     S
Er56     Er57    10.0   .     S
Er56     Ti98    10.001   .     S
Er57     Er58    9.999   .     S
Er57     Ti230    10.001   .     S
Er58     Ti225    10.001   .     S
Er59     Er60    9.999   .     S
Er59     Er61    10.0   .     S
Er59     Ti64    10.001   .     S
Er60     Er62    10.0   .     S
Er60     Ti97    10.001   .     S
Er61     Er62    9.999   .     S
Er61     Ti286    10.001   .     S
Er62     Ti277    10.001   .     S
Ti63     Ti64    10.0   .     S
Ti63     Ti65    10.0   .     S
Ti64     Ti65    10.0   .     S
Ti65     Er67    10.001   .     S
Er66     Er67    9.999   .     S
Er66     Er69    10.0   .     S
Er66     Ti72    10.001   .     S
Er67     Er68    10.0   .     S
Er68     Er69    9.999   .     S
Er68     Ti184    10.001   .     S
Er69     Ti210    10.001   .     S
Ti70     Ti71    10.0   .     S
Ti70     Ti72    10.0   .     S
Ti70     Er74    10.001   .     S
Ti71     Ti72    10.0   .     S
Er73     Er74    9.999   .     S
Er73     Er76    10.0   .     S
Er73     Ti86    10.001   .     S
Er74     Er75    10.0   .     S
Er75     Er76    9.999   .     S
Er75     Ti265    10.001   .     S
Er76     Ti270    10.001   .     S
Er77     Er78    9.999   .     S
Er77     Er80    10.0   .     S
Er77     Ti101    10.001   .     S
Er78     Er79    10.0   .     S
Er78     Ti115    10.001   .     S
Er79     Er80    9.999   .     S
Er79     Ti139    10.001   .     S
Er80     Ti154    10.001   .     S
Er81     Er82    9.999   .     S
Er81     Er84    10.0   .     S
Er81     Ti113    10.001   .     S
Er82     Er83    10.0   .     S
Er82     Ti108    10.001   .     S
Er83     Er84    9.999   .     S
Er83     Ti238    10.001   .     S
Er84     Ti233    10.001   .     S
Ti85     Ti86    10.0   .     S
Ti85     Ti87    10.0   .     S
Ti86     Ti87    10.0   .     S
Ti87     Er89    10.001   .     S
Er88     Er89    9.999   .     S
Er88     Er91    10.0   .     S
Er88     Ti96    10.001   .     S
Er89     Er90    10.0   .     S
Er90     Er91    9.999   .     S
Er90     Ti258    10.001   .     S
Er91     Ti253    10.001   .     S
Er92     Er93    9.999   .     S
Er92     Er95    10.0   .     S
Er92     Ti107    10.001   .     S
Er93     Er94    10.0   .     S
Er93     Ti103    10.001   .     S
Er94     Er95    9.999   .     S
Er94     Ti217    10.001   .     S
Er95     Ti222    10.001   .     S
Ti96     Ti97    10.0   .     S
Ti96     Ti98    10.0   .     S
Ti97     Ti98    10.0   .     S
Ti98     V100    10.0   .     S
V99     V105    10.001   .     S
V99     V100    9.999   .     S
V99     Ti102    10.0   .     S
Ti101     Ti103    10.0   .     S
Ti101     Ti102    10.0   .     S
Ti102     Ti103    10.0   .     S
Ti103     V105    10.0   .     S
V104     V110    10.001   .     S
V104     V105    9.999   .     S
V104     Ti107    10.0   .     S
Ti106     Ti107    10.0   .     S
Ti106     Ti108    10.0   .     S
Ti107     Ti108    10.0   .     S
Ti108     V110    10.0   .     S
V109     V110    9.999   .     S
V109     Ti113    10.0   .     S
Ti111     Ti113    10.0   .     S
Ti111     Ti112    10.0   .     S
Ti111     Er118    10.001   .     S
Ti112     Ti113    10.0   .     S
Ti114     Ti115    10.0   .     S
Ti114     Ti116    10.0   .     S
Ti115     Ti116    10.0   .     S
Ti116     Er117    10.001   .     S
Er117     Er118    9.999   .     S
Er117     Er120    10.0   .     S
Er118     Er119    10.0   .     S
Er119     Er120    9.999   .     S
Er119     Ti151    10.001   .     S
Er120     Ti136    10.001   .     S
V121     V147    10.001   .     S
V121     V127    10.001   .     S
V121     V122    9.999   1_554     S
V121     Ti137    10.0   .     S
V122     V171    10.001   .     S
V122     V221    10.001   .     S
V122     V121    9.999   1_556     S
V122     Ti218    10.0   .     S
V123     V143    10.001   .     S
V123     V125    10.001   .     S
V123     V124    9.999   1_545     S
V123     Ti135    10.0   .     S
V124     V169    10.001   .     S
V124     V188    10.001   .     S
V124     V123    9.999   1_565     S
V124     Ti182    10.0   .     S
V125     V143    10.001   .     S
V125     V126    9.999   1_554     S
V125     Ti134    10.0   .     S
V126     V177    10.001   .     S
V126     V229    10.001   .     S
V126     V125    9.999   1_556     S
V126     Ti226    10.0   .     S
V127     V147    10.001   .     S
V127     V128    9.999   1_455     S
V127     Ti138    10.0   .     S
V128     V175    10.001   .     S
V128     V190    10.001   .     S
V128     V127    9.999   1_655     S
V128     Ti185    10.0   .     S
V129     V145    10.001   .     S
V129     V131    10.001   .     S
V129     V130    9.999   1_545     S
V129     Ti140    10.0   .     S
V130     V179    10.001   .     S
V130     V237    10.001   .     S
V130     V129    9.999   1_565     S
V130     Ti234    10.0   .     S
V131     V145    10.001   .     S
V131     V132    9.999   1_455     S
V131     Ti141    10.0   .     S
V132     V173    10.001   .     S
V132     V284    10.001   .     S
V132     V131    9.999   1_655     S
V132     Ti288    10.0   .     S
Ti133     V143    10.0   .     S
Ti133     Ti134    10.0   .     S
Ti133     Ti135    10.0   .     S
Ti134     Ti135    10.0   .     S
Ti134     Er159    10.001   .     S
Ti135     Er165    10.001   .     S
Ti136     V147    10.0   .     S
Ti136     Ti137    10.0   .     S
Ti136     Ti138    10.0   .     S
Ti137     Ti138    10.0   .     S
Ti137     Er157    10.001   .     S
Ti138     Er163    10.001   .     S
Ti139     V145    10.0   .     S
Ti139     Ti140    10.0   .     S
Ti139     Ti141    10.0   .     S
Ti140     Ti141    10.0   .     S
Ti140     Er167    10.001   .     S
Ti141     Er161    10.001   .     S
V142     V143    9.999   .     S
V142     Ti148    10.0   .     S
V144     V145    9.999   .     S
V144     Ti154    10.0   .     S
V146     V147    9.999   .     S
V146     Ti151    10.0   .     S
Ti148     Ti149    10.0   .     S
Ti148     Ti150    10.0   .     S
Ti149     Ti150    10.0   .     S
Ti149     Er195    10.001   .     S
Ti150     Er191    10.001   .     S
Ti151     Ti153    10.0   .     S
Ti151     Ti152    10.0   .     S
Ti152     Ti153    10.0   .     S
Ti152     Er213    10.001   .     S
Ti153     Er202    10.001   .     S
Ti154     Ti155    10.0   .     S
Ti154     Ti156    10.0   .     S
Ti155     Ti156    10.0   .     S
Ti155     Er280    10.001   .     S
Ti156     Er206    10.001   .     S
Er157     Er158    9.999   1_554     S
Er157     Er159    10.0   .     S
Er158     Er157    9.999   1_556     S
Er158     Er160    10.0   .     S
Er158     Ti218    10.001   .     S
Er159     Er160    9.999   1_554     S
Er160     Er159    9.999   1_556     S
Er160     Ti226    10.001   .     S
Er161     Er162    9.999   1_455     S
Er161     Er163    10.0   .     S
Er162     Er161    9.999   1_655     S
Er162     Er164    10.0   .     S
Er162     Ti288    10.001   .     S
Er163     Er164    9.999   1_455     S
Er164     Er163    9.999   1_655     S
Er164     Ti185    10.001   .     S
Er165     Er166    9.999   1_545     S
Er165     Er167    10.0   .     S
Er166     Er165    9.999   1_565     S
Er166     Er168    10.0   .     S
Er166     Ti182    10.001   .     S
Er167     Er168    9.999   1_545     S
Er168     Er167    9.999   1_565     S
Er168     Ti234    10.001   .     S
V169     V188    10.001   .     S
V169     V170    9.999   1_554     S
V169     Ti183    10.0   .     S
V170     V178    10.001   .     S
V170     V249    10.001   .     S
V170     V169    9.999   1_556     S
V170     Ti246    10.0   .     S
V171     V221    10.001   .     S
V171     V172    9.999   1_455     S
V171     Ti219    10.0   .     S
V172     V176    10.001   .     S
V172     V257    10.001   .     S
V172     V171    9.999   1_655     S
V172     Ti255    10.0   .     S
V173     V284    10.001   .     S
V173     V174    9.999   1_545     S
V173     Ti287    10.0   .     S
V174     V180    10.001   .     S
V174     V269    10.001   .     S
V174     V173    9.999   1_565     S
V174     Ti266    10.0   .     S
V175     V190    10.001   .     S
V175     V176    9.999   1_554     S
V175     Ti186    10.0   .     S
V176     V257    10.001   .     S
V176     V175    9.999   1_556     S
V176     Ti254    10.0   .     S
V177     V229    10.001   .     S
V177     V178    9.999   1_545     S
V177     Ti227    10.0   .     S
V178     V249    10.001   .     S
V178     V177    9.999   1_565     S
V178     Ti247    10.0   .     S
V179     V237    10.001   .     S
V179     V180    9.999   1_455     S
V179     Ti235    10.0   .     S
V180     V269    10.001   .     S
V180     V179    9.999   1_655     S
V180     Ti267    10.0   .     S
Ti181     V188    10.0   .     S
Ti181     Ti183    10.0   .     S
Ti181     Ti182    10.0   .     S
Ti182     Ti183    10.0   .     S
Ti183     Er215    10.001   .     S
Ti184     V190    10.0   .     S
Ti184     Ti186    10.0   .     S
Ti184     Ti185    10.0   .     S
Ti185     Ti186    10.0   .     S
Ti186     Er193    10.001   .     S
V187     V188    9.999   .     S
V187     Ti199    10.0   .     S
V189     V190    9.999   .     S
V189     Ti210    10.0   .     S
Er191     Er192    9.999   1_554     S
Er191     Er193    10.0   .     S
Er192     Er191    9.999   1_556     S
Er192     Er194    10.0   .     S
Er192     Ti231    10.001   .     S
Er193     Er194    9.999   1_554     S
Er194     Er193    9.999   1_556     S
Er194     Ti254    10.001   .     S
Er195     Er196    9.999   1_545     S
Er195     Er197    10.0   .     S
Er196     Er195    9.999   1_565     S
Er196     Er198    10.0   .     S
Er196     Ti200    10.001   .     S
Er197     Er198    9.999   1_545     S
Er197     Ti287    10.001   .     S
Er198     Er197    9.999   1_565     S
Er198     Ti266    10.001   .     S
Ti199     Ti201    10.0   .     S
Ti199     Ti200    10.0   .     S
Ti200     Ti201    10.0   .     S
Ti201     Er243    10.001   .     S
Er202     Er203    9.999   1_455     S
Er202     Er204    10.0   .     S
Er203     Er202    9.999   1_655     S
Er203     Er205    10.0   .     S
Er203     Ti211    10.001   .     S
Er204     Er205    9.999   1_455     S
Er204     Ti235    10.001   .     S
Er205     Er204    9.999   1_655     S
Er205     Ti267    10.001   .     S
Er206     Er207    9.999   1_545     S
Er206     Er208    10.0   .     S
Er207     Er206    9.999   1_565     S
Er207     Er209    10.0   .     S
Er207     Ti239    10.001   .     S
Er208     Er209    9.999   1_545     S
Er208     Ti227    10.001   .     S
Er209     Er208    9.999   1_565     S
Er209     Ti247    10.001   .     S
Ti210     Ti212    10.0   .     S
Ti210     Ti211    10.0   .     S
Ti211     Ti212    10.0   .     S
Ti212     Er241    10.001   .     S
Er213     Er214    9.999   1_554     S
Er213     Er215    10.0   .     S
Er214     Er213    9.999   1_556     S
Er214     Er216    10.0   .     S
Er214     Ti223    10.001   .     S
Er215     Er216    9.999   1_554     S
Er216     Er215    9.999   1_556     S
Er216     Ti246    10.001   .     S
Ti217     V221    10.0   .     S
Ti217     Ti219    10.0   .     S
Ti217     Ti218    10.0   .     S
Ti218     Ti219    10.0   .     S
Ti219     Er282    10.001   .     S
V220     V221    9.999   .     S
V220     Ti222    10.0   .     S
Ti222     Ti224    10.0   .     S
Ti222     Ti223    10.0   .     S
Ti223     Ti224    10.0   .     S
Ti224     Er261    10.001   .     S
Ti225     V229    10.0   .     S
Ti225     Ti227    10.0   .     S
Ti225     Ti226    10.0   .     S
Ti226     Ti227    10.0   .     S
V228     V229    9.999   .     S
V228     Ti230    10.0   .     S
Ti230     Ti232    10.0   .     S
Ti230     Ti231    10.0   .     S
Ti231     Ti232    10.0   .     S
Ti232     Er273    10.001   .     S
Ti233     V237    10.0   .     S
Ti233     Ti235    10.0   .     S
Ti233     Ti234    10.0   .     S
Ti234     Ti235    10.0   .     S
V236     V237    9.999   .     S
V236     Ti238    10.0   .     S
Ti238     Ti240    10.0   .     S
Ti238     Ti239    10.0   .     S
Ti239     Ti240    10.0   .     S
Ti240     Er263    10.001   .     S
Er241     Er242    9.999   1_554     S
Er241     Er243    10.0   .     S
Er242     Er241    9.999   1_556     S
Er242     Er244    10.0   .     S
Er242     Ti259    10.001   .     S
Er243     Er244    9.999   1_554     S
Er244     Er243    9.999   1_556     S
Er244     Ti251    10.001   .     S
Ti245     V249    10.0   .     S
Ti245     Ti247    10.0   .     S
Ti245     Ti246    10.0   .     S
Ti246     Ti247    10.0   .     S
V248     V249    9.999   .     S
V248     Ti250    10.0   .     S
Ti250     Ti252    10.0   .     S
Ti250     Ti251    10.0   .     S
Ti251     Ti252    10.0   .     S
Ti252     Er274    10.001   .     S
Ti253     V257    10.0   .     S
Ti253     Ti255    10.0   .     S
Ti253     Ti254    10.0   .     S
Ti254     Ti255    10.0   .     S
Ti255     Er283    10.001   .     S
V256     V257    9.999   .     S
V256     Ti258    10.0   .     S
Ti258     Ti260    10.0   .     S
Ti258     Ti259    10.0   .     S
Ti259     Ti260    10.0   .     S
Ti260     Er262    10.001   .     S
Er261     Er262    9.999   1_455     S
Er261     Er263    10.0   .     S
Er262     Er261    9.999   1_655     S
Er262     Er264    10.0   .     S
Er263     Er264    9.999   1_455     S
Er264     Er263    9.999   1_655     S
Er264     Ti271    10.001   .     S
Ti265     V269    10.0   .     S
Ti265     Ti267    10.0   .     S
Ti265     Ti266    10.0   .     S
Ti266     Ti267    10.0   .     S
V268     V269    9.999   .     S
V268     Ti270    10.0   .     S
Ti270     Ti271    10.0   .     S
Ti270     Ti272    10.0   .     S
Ti271     Ti272    10.0   .     S
Ti272     Er276    10.001   .     S
Er273     Er274    9.999   1_545     S
Er273     Er275    10.0   .     S
Er274     Er273    9.999   1_565     S
Er274     Er276    10.0   .     S
Er275     Er276    9.999   1_545     S
Er275     Ti279    10.001   .     S
Er276     Er275    9.999   1_565     S
Ti277     V285    10.0   .     S
Ti277     Ti279    10.0   .     S
Ti277     Ti278    10.0   .     S
Ti278     Ti279    10.0   .     S
Ti278     Er281    10.001   .     S
Er280     Er281    9.999   1_455     S
Er280     Er282    10.0   .     S
Er281     Er280    9.999   1_655     S
Er281     Er283    10.0   .     S
Er282     Er283    9.999   1_455     S
Er283     Er282    9.999   1_655     S
V284     V285    9.999   .     S
V284     Ti286    10.0   .     S
Ti286     Ti287    10.0   .     S
Ti286     Ti288    10.0   .     S
Ti287     Ti288    10.0   .     S
