data_xbq
_audit_creation_date              2020-02-04
_audit_creation_method            'Pymatgen'
_symmetry_space_group_name_H-M    'P1'
_symmetry_Int_Tables_number       1
loop_
_symmetry_equiv_pos_as_xyz
  x,y,z
_cell_length_a                    44.4949
_cell_length_b                    44.4949
_cell_length_c                    44.4949
_cell_angle_alpha                 90.0
_cell_angle_beta                 90.0
_cell_angle_gamma                 90.0
loop_
_atom_site_label
_atom_site_type_symbol
_atom_site_fract_x
_atom_site_fract_y
_atom_site_fract_z
Er1     Er     0.5917   0.5917   0.4083
Er2     Er     0.5917   0.4083   0.5917
Er3     Er     0.4083   0.4083   0.4083
Er4     Er     0.4083   0.5917   0.5917
Er5     Er     0.0917   0.4083   0.0917
Er6     Er     0.4083   0.0917   0.0917
V7     V     0.0   0.0   0.0
Ti8     Ti     0.0   0.0   0.7753
Ti9     Ti     0.0   0.7753   0.0
Ti10     Ti     0.7753   0.0   0.0
Ti11     Ti     0.0   0.0   0.2247
Ti12     Ti     0.2247   0.0   0.0
Ti13     Ti     0.0   0.2247   0.0
Er14     Er     0.0917   0.0917   0.4083
Er15     Er     0.5917   0.9083   0.0917
Er16     Er     0.9083   0.5917   0.0917
Ti17     Ti     0.2753   0.5   0.0
Ti18     Ti     0.5   0.2753   0.0
V19     V     0.5   0.5   0.0
Ti20     Ti     0.5   0.5   0.7753
Ti21     Ti     0.5   0.5   0.2247
Ti22     Ti     0.5   0.7247   0.0
Ti23     Ti     0.7247   0.5   0.0
Er24     Er     0.9083   0.0917   0.5917
Ti25     Ti     0.2753   0.0   0.5
Ti26     Ti     0.5   0.0   0.2753
V27     V     0.5   0.0   0.5
Ti28     Ti     0.5   0.7753   0.5
Ti29     Ti     0.5   0.2247   0.5
Ti30     Ti     0.7247   0.0   0.5
Ti31     Ti     0.5   0.0   0.7247
Er32     Er     0.5917   0.0917   0.9083
Er33     Er     0.0917   0.9083   0.5917
Ti34     Ti     0.0   0.2753   0.5
Ti35     Ti     0.0   0.5   0.2753
V36     V     0.0   0.5   0.5
Ti37     Ti     0.7753   0.5   0.5
Ti38     Ti     0.2247   0.5   0.5
Ti39     Ti     0.0   0.5   0.7247
Ti40     Ti     0.0   0.7247   0.5
Er41     Er     0.0917   0.5917   0.9083
Er42     Er     0.9083   0.9083   0.4083
Er43     Er     0.9083   0.4083   0.9083
Er44     Er     0.4083   0.9083   0.9083
loop_
_geom_bond_atom_site_label_1
_geom_bond_atom_site_label_2
_geom_bond_distance
_geom_bond_site_symmetry_2
_ccdc_geom_bond_type
Er1     Ti37    10.0   .     S
Er1     Ti28    10.0   .     S
Er1     Ti21    10.0   .     S
Er2     Ti37    10.0   .     S
Er2     Ti20    10.0   .     S
Er2     Ti29    10.0   .     S
Er3     Ti38    10.0   .     S
Er3     Ti29    10.0   .     S
Er3     Ti21    10.0   .     S
Er4     Ti28    10.0   .     S
Er4     Ti20    10.0   .     S
Er4     Ti38    10.0   .     S
Er5     Ti13    10.0   .     S
Er5     Ti35    10.0   .     S
Er5     Ti17    10.0   .     S
Er6     Ti12    10.0   .     S
Er6     Ti26    10.0   .     S
Er6     Ti18    10.0   .     S
V7     Ti8    10.0   1_554     S
V7     Ti9    10.0   1_545     S
V7     Ti10    10.0   1_455     S
V7     Ti11    10.0   .     S
V7     Ti12    10.0   .     S
V7     Ti13    10.0   .     S
Ti8     V7    10.0   1_556     S
Ti8     Er33    10.0   1_545     S
Ti8     Er24    10.0   1_455     S
Ti9     V7    10.0   1_565     S
Ti9     Er41    10.0   1_554     S
Ti9     Er16    10.0   1_455     S
Ti10     V7    10.0   1_655     S
Ti10     Er15    10.0   1_545     S
Ti10     Er32    10.0   1_554     S
Ti11     Er42    10.0   1_445     S
Ti11     Er14    10.0   .     S
Ti12     Er44    10.0   1_544     S
Ti13     Er43    10.0   1_454     S
Er14     Ti34    10.0   .     S
Er14     Ti25    10.0   .     S
Er15     Ti22    10.0   .     S
Er15     Ti10    10.0   1_565     S
Er15     Ti26    10.0   1_565     S
Er16     Ti23    10.0   .     S
Er16     Ti9    10.0   1_655     S
Er16     Ti35    10.0   1_655     S
Ti17     V19    10.0   .     S
Ti17     Er41    10.0   1_554     S
Ti18     V19    10.0   .     S
Ti18     Er32    10.0   1_554     S
V19     Ti22    10.0   .     S
V19     Ti20    10.0   1_554     S
V19     Ti23    10.0   .     S
V19     Ti21    10.0   .     S
Ti20     V19    10.0   1_556     S
Ti22     Er44    10.0   1_554     S
Ti23     Er43    10.0   1_554     S
Er24     Ti30    10.0   .     S
Er24     Ti8    10.0   1_655     S
Er24     Ti34    10.0   1_655     S
Ti25     V27    10.0   .     S
Ti25     Er33    10.0   1_545     S
Ti26     V27    10.0   .     S
Ti26     Er15    10.0   1_545     S
V27     Ti30    10.0   .     S
V27     Ti31    10.0   .     S
V27     Ti28    10.0   1_545     S
V27     Ti29    10.0   .     S
Ti28     V27    10.0   1_565     S
Ti30     Er42    10.0   1_545     S
Ti31     Er32    10.0   .     S
Ti31     Er44    10.0   1_545     S
Er32     Ti10    10.0   1_556     S
Er32     Ti18    10.0   1_556     S
Er33     Ti40    10.0   .     S
Er33     Ti8    10.0   1_565     S
Er33     Ti25    10.0   1_565     S
Ti34     V36    10.0   .     S
Ti34     Er24    10.0   1_455     S
Ti35     V36    10.0   .     S
Ti35     Er16    10.0   1_455     S
V36     Ti39    10.0   .     S
V36     Ti37    10.0   1_455     S
V36     Ti40    10.0   .     S
V36     Ti38    10.0   .     S
Ti37     V36    10.0   1_655     S
Ti39     Er41    10.0   .     S
Ti39     Er43    10.0   1_455     S
Ti40     Er42    10.0   1_455     S
Er41     Ti9    10.0   1_556     S
Er41     Ti17    10.0   1_556     S
Er42     Ti11    10.0   1_665     S
Er42     Ti30    10.0   1_565     S
Er42     Ti40    10.0   1_655     S
Er43     Ti13    10.0   1_656     S
Er43     Ti23    10.0   1_556     S
Er43     Ti39    10.0   1_655     S
Er44     Ti12    10.0   1_566     S
Er44     Ti22    10.0   1_556     S
Er44     Ti31    10.0   1_565     S
