data_xbr
_audit_creation_date              2020-02-04
_audit_creation_method            'Pymatgen'
_symmetry_space_group_name_H-M    'P1'
_symmetry_Int_Tables_number       1
loop_
_symmetry_equiv_pos_as_xyz
  x,y,z
_cell_length_a                    20.6931
_cell_length_b                    20.6931
_cell_length_c                    20.6931
_cell_angle_alpha                 90.0
_cell_angle_beta                 90.0
_cell_angle_gamma                 90.0
loop_
_atom_site_label
_atom_site_type_symbol
_atom_site_fract_x
_atom_site_fract_y
_atom_site_fract_z
Er1     Er     0.875   0.875   0.875
Er2     Er     0.375   0.375   0.875
Er3     Er     0.875   0.375   0.375
Er4     Er     0.375   0.875   0.375
Er5     Er     0.125   0.125   0.125
Er6     Er     0.125   0.625   0.625
Er7     Er     0.625   0.125   0.625
Er8     Er     0.625   0.625   0.125
V9     V     0.125   0.125   0.625
V10     V     0.875   0.375   0.875
V11     V     0.625   0.125   0.125
V12     V     0.875   0.875   0.375
V13     V     0.125   0.625   0.125
V14     V     0.375   0.875   0.875
V15     V     0.625   0.625   0.625
V16     V     0.375   0.375   0.375
loop_
_geom_bond_atom_site_label_1
_geom_bond_atom_site_label_2
_geom_bond_distance
_geom_bond_site_symmetry_2
_ccdc_geom_bond_type
Er1     Er7    8.96   1_565     S
Er1     Er8    8.96   1_556     S
Er1     Er6    8.96   1_655     S
Er1     Er5    8.96   1_666     S
Er1     V10    10.347   1_565     S
Er1     V12    10.347   1_556     S
Er1     V14    10.347   1_655     S
Er1     V12    10.347   .     S
Er1     V10    10.347   .     S
Er1     V14    10.347   .     S
Er2     Er7    8.96   .     S
Er2     Er6    8.96   .     S
Er2     Er5    8.96   1_556     S
Er2     Er8    8.96   1_556     S
Er2     V10    10.347   .     S
Er2     V14    10.347   1_545     S
Er2     V10    10.347   1_455     S
Er2     V14    10.347   .     S
Er2     V16    10.347   1_556     S
Er2     V16    10.347   .     S
Er3     Er7    8.96   .     S
Er3     Er8    8.96   .     S
Er3     Er5    8.96   1_655     S
Er3     Er6    8.96   1_655     S
Er3     V10    10.347   1_554     S
Er3     V10    10.347   .     S
Er3     V12    10.347   1_545     S
Er3     V12    10.347   .     S
Er3     V16    10.347   1_655     S
Er3     V16    10.347   .     S
Er4     Er8    8.96   .     S
Er4     Er6    8.96   .     S
Er4     Er5    8.96   1_565     S
Er4     Er7    8.96   1_565     S
Er4     V12    10.347   1_455     S
Er4     V14    10.347   .     S
Er4     V14    10.347   1_554     S
Er4     V12    10.347   .     S
Er4     V16    10.347   .     S
Er4     V16    10.347   1_565     S
Er5     Er2    8.96   1_554     S
Er5     Er4    8.96   1_545     S
Er5     Er3    8.96   1_455     S
Er5     Er1    8.96   1_444     S
Er5     V9    10.347   .     S
Er5     V13    10.347   .     S
Er5     V11    10.347   .     S
Er5     V9    10.347   1_554     S
Er5     V11    10.347   1_455     S
Er5     V13    10.347   1_545     S
Er6     Er1    8.96   1_455     S
Er6     Er3    8.96   1_455     S
Er6     V13    10.347   1_556     S
Er6     V9    10.347   1_565     S
Er6     V9    10.347   .     S
Er6     V13    10.347   .     S
Er6     V15    10.347   .     S
Er6     V15    10.347   1_455     S
Er7     Er1    8.96   1_545     S
Er7     Er4    8.96   1_545     S
Er7     V11    10.347   1_556     S
Er7     V9    10.347   1_655     S
Er7     V11    10.347   .     S
Er7     V15    10.347   .     S
Er7     V9    10.347   .     S
Er7     V15    10.347   1_545     S
Er8     Er1    8.96   1_554     S
Er8     Er2    8.96   1_554     S
Er8     V11    10.347   1_565     S
Er8     V13    10.347   1_655     S
Er8     V13    10.347   .     S
Er8     V15    10.347   .     S
Er8     V11    10.347   .     S
Er8     V15    10.347   1_554     S
V9     Er7    10.347   1_455     S
V9     Er6    10.347   1_545     S
V9     Er5    10.347   1_556     S
V10     Er1    10.347   1_545     S
V10     Er3    10.347   1_556     S
V10     Er2    10.347   1_655     S
V11     Er7    10.347   1_554     S
V11     Er8    10.347   1_545     S
V11     Er5    10.347   1_655     S
V12     Er1    10.347   1_554     S
V12     Er3    10.347   1_565     S
V12     Er4    10.347   1_655     S
V13     Er6    10.347   1_554     S
V13     Er8    10.347   1_455     S
V13     Er5    10.347   1_565     S
V14     Er1    10.347   1_455     S
V14     Er4    10.347   1_556     S
V14     Er2    10.347   1_565     S
V15     Er8    10.347   1_556     S
V15     Er6    10.347   1_655     S
V15     Er7    10.347   1_565     S
V16     Er3    10.347   1_455     S
V16     Er2    10.347   1_554     S
V16     Er4    10.347   1_545     S
