data_xff
_audit_creation_date              2020-02-04
_audit_creation_method            'Pymatgen'
_symmetry_space_group_name_H-M    'P1'
_symmetry_Int_Tables_number       1
loop_
_symmetry_equiv_pos_as_xyz
  x,y,z
_cell_length_a                    19.2777
_cell_length_b                    19.2777
_cell_length_c                    36.5199
_cell_angle_alpha                 90.0
_cell_angle_beta                 90.0
_cell_angle_gamma                 90.0
loop_
_atom_site_label
_atom_site_type_symbol
_atom_site_fract_x
_atom_site_fract_y
_atom_site_fract_z
V1     V     0.239   0.3508   0.4635
V2     V     0.761   0.1492   0.4635
V3     V     0.239   0.8508   0.5365
V4     V     0.761   0.6492   0.5365
V5     V     0.3992   0.989   0.2865
V6     V     0.6008   0.511   0.2865
V7     V     0.1008   0.511   0.2135
V8     V     0.8992   0.989   0.2135
V9     V     0.739   0.8508   0.9635
V10     V     0.261   0.6492   0.9635
V11     V     0.261   0.1492   0.0365
V12     V     0.739   0.3508   0.0365
V13     V     0.1008   0.011   0.7865
V14     V     0.8992   0.489   0.7865
V15     V     0.6008   0.011   0.7135
V16     V     0.3992   0.489   0.7135
loop_
_geom_bond_atom_site_label_1
_geom_bond_atom_site_label_2
_geom_bond_distance
_geom_bond_site_symmetry_2
_ccdc_geom_bond_type
V1     V2    10.0   1_455     S
V1     V7    10.0   .     S
V1     V3    10.0   .     S
V1     V6    10.0   .     S
V1     V3    10.0   1_545     S
V1     V5    10.0   1_545     S
V1     V16    10.0   .     S
V2     V1    10.0   1_655     S
V2     V8    10.0   1_545     S
V2     V4    10.0   1_545     S
V2     V4    10.0   .     S
V2     V5    10.0   1_545     S
V2     V6    10.0   .     S
V2     V15    10.0   .     S
V3     V4    10.0   1_455     S
V3     V13    10.0   1_565     S
V3     V1    10.0   1_565     S
V3     V15    10.0   1_565     S
V3     V5    10.0   .     S
V3     V16    10.0   .     S
V4     V3    10.0   1_655     S
V4     V14    10.0   .     S
V4     V2    10.0   1_565     S
V4     V16    10.0   .     S
V4     V6    10.0   .     S
V4     V15    10.0   1_565     S
V5     V2    10.0   1_565     S
V5     V6    10.0   .     S
V5     V8    10.0   .     S
V5     V1    10.0   1_565     S
V5     V8    10.0   1_455     S
V5     V11    10.0   1_565     S
V6     V7    10.0   1_655     S
V6     V7    10.0   .     S
V6     V12    10.0   .     S
V7     V6    10.0   1_455     S
V7     V8    10.0   1_455     S
V7     V10    10.0   1_554     S
V7     V11    10.0   .     S
V7     V12    10.0   1_455     S
V8     V2    10.0   1_565     S
V8     V7    10.0   1_655     S
V8     V9    10.0   1_554     S
V8     V12    10.0   1_565     S
V8     V5    10.0   1_655     S
V8     V11    10.0   1_665     S
V9     V8    10.0   1_556     S
V9     V10    10.0   .     S
V9     V15    10.0   1_565     S
V9     V12    10.0   1_556     S
V9     V13    10.0   1_665     S
V9     V12    10.0   1_566     S
V9     V14    10.0   .     S
V10     V7    10.0   1_556     S
V10     V16    10.0   .     S
V10     V14    10.0   1_455     S
V10     V11    10.0   1_566     S
V10     V11    10.0   1_556     S
V10     V13    10.0   1_565     S
V11     V12    10.0   .     S
V11     V5    10.0   1_545     S
V11     V8    10.0   1_445     S
V11     V10    10.0   1_544     S
V11     V10    10.0   1_554     S
V11     V13    10.0   1_554     S
V12     V8    10.0   1_545     S
V12     V9    10.0   1_554     S
V12     V9    10.0   1_544     S
V12     V7    10.0   1_655     S
V12     V14    10.0   1_554     S
V13     V3    10.0   1_545     S
V13     V9    10.0   1_445     S
V13     V14    10.0   1_455     S
V13     V11    10.0   1_556     S
V13     V10    10.0   1_545     S
V13     V15    10.0   .     S
V13     V15    10.0   1_455     S
V14     V10    10.0   1_655     S
V14     V13    10.0   1_655     S
V14     V12    10.0   1_556     S
V14     V16    10.0   .     S
V14     V16    10.0   1_655     S
V15     V3    10.0   1_545     S
V15     V9    10.0   1_545     S
V15     V16    10.0   .     S
V15     V13    10.0   1_655     S
V15     V4    10.0   1_545     S
V16     V14    10.0   1_455     S
