data_xfp
_audit_creation_date              2020-02-04
_audit_creation_method            'Pymatgen'
_symmetry_space_group_name_H-M    'P1'
_symmetry_Int_Tables_number       1
loop_
_symmetry_equiv_pos_as_xyz
  x,y,z
_cell_length_a                    32.9709
_cell_length_b                    32.9709
_cell_length_c                    27.4249
_cell_angle_alpha                 90.0
_cell_angle_beta                 90.0
_cell_angle_gamma                 90.0
loop_
_atom_site_label
_atom_site_type_symbol
_atom_site_fract_x
_atom_site_fract_y
_atom_site_fract_z
V1     V     0.3215   0.1388   0.6608
V2     V     0.6112   0.0715   0.5892
V3     V     0.3888   0.4285   0.5892
V4     V     0.6785   0.3612   0.6608
V5     V     0.1785   0.1388   0.3392
V6     V     0.8888   0.0715   0.4108
V7     V     0.8215   0.3612   0.3392
V8     V     0.1112   0.4285   0.4108
V9     V     0.8215   0.6388   0.1608
V10     V     0.8888   0.9285   0.0892
V11     V     0.1785   0.8612   0.1608
V12     V     0.1112   0.5715   0.0892
V13     V     0.3215   0.8612   0.8392
V14     V     0.6112   0.9285   0.9108
V15     V     0.6785   0.6388   0.8392
V16     V     0.3888   0.5715   0.9108
V17     V     0.1785   0.3612   0.8392
V18     V     0.8888   0.4285   0.9108
V19     V     0.8215   0.1388   0.8392
V20     V     0.1112   0.0715   0.9108
V21     V     0.3888   0.0715   0.0892
V22     V     0.6785   0.1388   0.1608
V23     V     0.6112   0.4285   0.0892
V24     V     0.3215   0.3612   0.1608
V25     V     0.6785   0.8612   0.3392
V26     V     0.3888   0.9285   0.4108
V27     V     0.6112   0.5715   0.4108
V28     V     0.3215   0.6388   0.3392
V29     V     0.8215   0.8612   0.6608
V30     V     0.1785   0.6388   0.6608
V31     V     0.8888   0.5715   0.5892
V32     V     0.1112   0.9285   0.5892
loop_
_geom_bond_atom_site_label_1
_geom_bond_atom_site_label_2
_geom_bond_distance
_geom_bond_site_symmetry_2
_ccdc_geom_bond_type
V1     V26    10.0   1_545     S
V1     V3    10.0   .     S
V1     V2    10.0   .     S
V1     V5    10.0   .     S
V1     V20    10.0   .     S
V1     V17    10.0   .     S
V1     V32    10.0   1_545     S
V2     V29    10.0   1_545     S
V2     V25    10.0   1_545     S
V2     V26    10.0   1_545     S
V2     V19    10.0   .     S
V2     V4    10.0   .     S
V2     V14    10.0   1_545     S
V3     V28    10.0   .     S
V3     V27    10.0   .     S
V3     V30    10.0   .     S
V3     V4    10.0   .     S
V3     V16    10.0   .     S
V3     V17    10.0   .     S
V4     V27    10.0   .     S
V4     V19    10.0   .     S
V4     V18    10.0   .     S
V4     V31    10.0   .     S
V4     V7    10.0   .     S
V5     V21    10.0   .     S
V5     V24    10.0   .     S
V5     V26    10.0   1_545     S
V5     V8    10.0   .     S
V5     V6    10.0   1_455     S
V5     V32    10.0   1_545     S
V6     V22    10.0   .     S
V6     V5    10.0   1_655     S
V6     V7    10.0   .     S
V6     V10    10.0   1_545     S
V6     V32    10.0   1_645     S
V6     V29    10.0   1_545     S
V6     V25    10.0   1_545     S
V7     V23    10.0   .     S
V7     V22    10.0   .     S
V7     V27    10.0   .     S
V7     V31    10.0   .     S
V7     V8    10.0   1_655     S
V8     V24    10.0   .     S
V8     V31    10.0   1_455     S
V8     V30    10.0   .     S
V8     V28    10.0   .     S
V8     V7    10.0   1_455     S
V8     V12    10.0   .     S
V9     V18    10.0   1_554     S
V9     V10    10.0   .     S
V9     V12    10.0   1_655     S
V9     V15    10.0   1_554     S
V9     V25    10.0   .     S
V9     V27    10.0   .     S
V9     V23    10.0   .     S
V10     V22    10.0   1_565     S
V10     V20    10.0   1_664     S
V10     V19    10.0   1_564     S
V10     V11    10.0   1_655     S
V10     V6    10.0   1_565     S
V10     V25    10.0   .     S
V11     V20    10.0   1_564     S
V11     V28    10.0   .     S
V11     V26    10.0   .     S
V11     V21    10.0   1_565     S
V11     V10    10.0   1_455     S
V11     V12    10.0   .     S
V11     V13    10.0   1_554     S
V12     V17    10.0   1_554     S
V12     V18    10.0   1_454     S
V12     V24    10.0   .     S
V12     V28    10.0   .     S
V12     V9    10.0   1_455     S
V13     V32    10.0   .     S
V13     V30    10.0   .     S
V13     V20    10.0   1_565     S
V13     V21    10.0   1_566     S
V13     V16    10.0   .     S
V13     V14    10.0   .     S
V13     V11    10.0   1_556     S
V14     V29    10.0   .     S
V14     V22    10.0   1_566     S
V14     V21    10.0   1_566     S
V14     V19    10.0   1_565     S
V14     V2    10.0   1_565     S
V14     V15    10.0   .     S
V15     V31    10.0   .     S
V15     V29    10.0   .     S
V15     V18    10.0   .     S
V15     V16    10.0   .     S
V15     V9    10.0   1_556     S
V15     V23    10.0   1_556     S
V16     V30    10.0   .     S
V16     V24    10.0   1_556     S
V16     V23    10.0   1_556     S
V16     V17    10.0   .     S
V17     V12    10.0   1_556     S
V17     V18    10.0   1_455     S
V17     V20    10.0   .     S
V17     V24    10.0   1_556     S
V18     V12    10.0   1_656     S
V18     V9    10.0   1_556     S
V18     V17    10.0   1_655     S
V18     V19    10.0   .     S
V18     V31    10.0   .     S
V19     V10    10.0   1_546     S
V19     V14    10.0   1_545     S
V19     V20    10.0   1_655     S
V19     V22    10.0   1_556     S
V20     V11    10.0   1_546     S
V20     V10    10.0   1_446     S
V20     V13    10.0   1_545     S
V20     V19    10.0   1_455     S
V20     V32    10.0   1_545     S
V21     V14    10.0   1_544     S
V21     V13    10.0   1_544     S
V21     V11    10.0   1_545     S
V21     V22    10.0   .     S
V21     V24    10.0   .     S
V21     V26    10.0   1_545     S
V22     V10    10.0   1_545     S
V22     V14    10.0   1_544     S
V22     V23    10.0   .     S
V22     V19    10.0   1_554     S
V23     V24    10.0   .     S
V23     V27    10.0   .     S
V23     V16    10.0   1_554     S
V23     V15    10.0   1_554     S
V24     V17    10.0   1_554     S
V24     V16    10.0   1_554     S
V25     V2    10.0   1_565     S
V25     V27    10.0   .     S
V25     V26    10.0   .     S
V25     V29    10.0   .     S
V25     V6    10.0   1_565     S
V26     V2    10.0   1_565     S
V26     V1    10.0   1_565     S
V26     V5    10.0   1_565     S
V26     V21    10.0   1_565     S
V26     V28    10.0   .     S
V27     V28    10.0   .     S
V28     V30    10.0   .     S
V29     V2    10.0   1_565     S
V29     V31    10.0   .     S
V29     V32    10.0   1_655     S
V29     V6    10.0   1_565     S
V30     V31    10.0   1_455     S
V30     V32    10.0   .     S
V31     V8    10.0   1_655     S
V31     V30    10.0   1_655     S
V32     V29    10.0   1_455     S
V32     V20    10.0   1_565     S
V32     V5    10.0   1_565     S
V32     V6    10.0   1_465     S
V32     V1    10.0   1_565     S
