data_xfq
_audit_creation_date              2020-02-04
_audit_creation_method            'Pymatgen'
_symmetry_space_group_name_H-M    'P1'
_symmetry_Int_Tables_number       1
loop_
_symmetry_equiv_pos_as_xyz
  x,y,z
_cell_length_a                    32.7081
_cell_length_b                    32.7081
_cell_length_c                    27.9388
_cell_angle_alpha                 90.0
_cell_angle_beta                 90.0
_cell_angle_gamma                 90.0
loop_
_atom_site_label
_atom_site_type_symbol
_atom_site_fract_x
_atom_site_fract_y
_atom_site_fract_z
V1     V     0.3239   0.3641   0.6681
V2     V     0.3239   0.6359   0.8319
V3     V     0.3859   0.5739   0.4181
V4     V     0.1141   0.5739   0.5819
V5     V     0.1761   0.6359   0.1681
V6     V     0.1761   0.3641   0.3319
V7     V     0.3859   0.4261   0.0819
V8     V     0.1141   0.4261   0.9181
V9     V     0.3239   0.1359   0.1681
V10     V     0.3239   0.8641   0.3319
V11     V     0.1761   0.1359   0.8319
V12     V     0.1761   0.8641   0.6681
V13     V     0.1141   0.9261   0.0819
V14     V     0.3859   0.9261   0.9181
V15     V     0.3859   0.0739   0.5819
V16     V     0.1141   0.0739   0.4181
V17     V     0.6141   0.5739   0.9181
V18     V     0.8859   0.5739   0.0819
V19     V     0.6761   0.3641   0.1681
V20     V     0.6761   0.6359   0.3319
V21     V     0.8859   0.4261   0.4181
V22     V     0.6141   0.4261   0.5819
V23     V     0.8239   0.3641   0.8319
V24     V     0.8239   0.6359   0.6681
V25     V     0.8859   0.9261   0.5819
V26     V     0.6141   0.9261   0.4181
V27     V     0.6761   0.8641   0.8319
V28     V     0.6761   0.1359   0.6681
V29     V     0.6141   0.0739   0.0819
V30     V     0.8859   0.0739   0.9181
V31     V     0.8239   0.1359   0.3319
V32     V     0.8239   0.8641   0.1681
loop_
_geom_bond_atom_site_label_1
_geom_bond_atom_site_label_2
_geom_bond_distance
_geom_bond_site_symmetry_2
_ccdc_geom_bond_type
V1     V22    10.0   .     S
V1     V2    10.0   .     S
V1     V4    10.0   .     S
V1     V3    10.0   .     S
V1     V8    10.0   .     S
V1     V11    10.0   .     S
V1     V15    10.0   .     S
V2     V17    10.0   .     S
V2     V4    10.0   .     S
V2     V8    10.0   .     S
V2     V7    10.0   1_556     S
V2     V14    10.0   .     S
V2     V12    10.0   .     S
V3     V20    10.0   .     S
V3     V22    10.0   .     S
V3     V6    10.0   .     S
V3     V5    10.0   .     S
V3     V4    10.0   .     S
V3     V10    10.0   .     S
V4     V21    10.0   1_455     S
V4     V24    10.0   1_455     S
V4     V6    10.0   .     S
V4     V12    10.0   .     S
V5     V18    10.0   1_455     S
V5     V6    10.0   .     S
V5     V7    10.0   .     S
V5     V8    10.0   1_554     S
V5     V13    10.0   .     S
V5     V10    10.0   .     S
V6     V21    10.0   1_455     S
V6     V7    10.0   .     S
V6     V16    10.0   .     S
V6     V9    10.0   .     S
V7     V19    10.0   .     S
V7     V17    10.0   1_554     S
V7     V2    10.0   1_554     S
V7     V8    10.0   1_554     S
V7     V9    10.0   .     S
V8     V23    10.0   1_455     S
V8     V18    10.0   1_456     S
V8     V5    10.0   1_556     S
V8     V7    10.0   1_556     S
V8     V11    10.0   .     S
V9     V29    10.0   .     S
V9     V10    10.0   1_545     S
V9     V13    10.0   1_545     S
V9     V14    10.0   1_544     S
V9     V16    10.0   .     S
V10     V26    10.0   .     S
V10     V9    10.0   1_565     S
V10     V13    10.0   .     S
V10     V16    10.0   1_565     S
V10     V15    10.0   1_565     S
V11     V30    10.0   1_455     S
V11     V12    10.0   1_545     S
V11     V14    10.0   1_545     S
V11     V13    10.0   1_546     S
V11     V15    10.0   .     S
V12     V25    10.0   1_455     S
V12     V11    10.0   1_565     S
V12     V14    10.0   .     S
V12     V15    10.0   1_565     S
V12     V16    10.0   1_565     S
V13     V32    10.0   1_455     S
V13     V30    10.0   1_464     S
V13     V11    10.0   1_564     S
V13     V14    10.0   1_554     S
V13     V9    10.0   1_565     S
V14     V29    10.0   1_566     S
V14     V27    10.0   .     S
V14     V11    10.0   1_565     S
V14     V13    10.0   1_556     S
V14     V9    10.0   1_566     S
V15     V26    10.0   1_545     S
V15     V28    10.0   .     S
V15     V12    10.0   1_545     S
V15     V16    10.0   .     S
V15     V10    10.0   1_545     S
V16     V31    10.0   1_455     S
V16     V25    10.0   1_445     S
V16     V12    10.0   1_545     S
V16     V10    10.0   1_545     S
V17     V7    10.0   1_556     S
V17     V27    10.0   .     S
V17     V18    10.0   1_556     S
V17     V19    10.0   1_556     S
V17     V23    10.0   .     S
V17     V24    10.0   .     S
V18     V8    10.0   1_654     S
V18     V5    10.0   1_655     S
V18     V17    10.0   1_554     S
V18     V19    10.0   .     S
V18     V20    10.0   .     S
V18     V23    10.0   1_554     S
V18     V32    10.0   .     S
V19     V29    10.0   .     S
V19     V31    10.0   .     S
V19     V17    10.0   1_554     S
V19     V21    10.0   .     S
V19     V20    10.0   .     S
V20     V21    10.0   .     S
V20     V22    10.0   .     S
V20     V26    10.0   .     S
V20     V32    10.0   .     S
V21     V6    10.0   1_655     S
V21     V4    10.0   1_655     S
V21     V31    10.0   .     S
V21     V22    10.0   .     S
V21     V24    10.0   .     S
V22     V24    10.0   .     S
V22     V23    10.0   .     S
V22     V28    10.0   .     S
V23     V8    10.0   1_655     S
V23     V24    10.0   .     S
V23     V18    10.0   1_556     S
V23     V30    10.0   .     S
V23     V28    10.0   .     S
V24     V4    10.0   1_655     S
V24     V25    10.0   .     S
V24     V27    10.0   .     S
V25     V16    10.0   1_665     S
V25     V12    10.0   1_655     S
V25     V26    10.0   .     S
V25     V28    10.0   1_565     S
V25     V27    10.0   .     S
V25     V31    10.0   1_565     S
V26     V15    10.0   1_565     S
V26     V28    10.0   1_565     S
V26     V31    10.0   1_565     S
V26     V32    10.0   .     S
V27     V28    10.0   1_565     S
V27     V30    10.0   1_565     S
V27     V29    10.0   1_566     S
V28     V25    10.0   1_545     S
V28     V26    10.0   1_545     S
V28     V27    10.0   1_545     S
V28     V30    10.0   .     S
V29     V14    10.0   1_544     S
V29     V27    10.0   1_544     S
V29     V30    10.0   1_554     S
V29     V32    10.0   1_545     S
V29     V31    10.0   .     S
V30     V13    10.0   1_646     S
V30     V11    10.0   1_655     S
V30     V27    10.0   1_545     S
V30     V29    10.0   1_556     S
V30     V32    10.0   1_546     S
V31     V16    10.0   1_655     S
V31     V26    10.0   1_545     S
V31     V25    10.0   1_545     S
V31     V32    10.0   1_545     S
V32     V13    10.0   1_655     S
V32     V29    10.0   1_565     S
V32     V30    10.0   1_564     S
V32     V31    10.0   1_565     S
