data_zfm
_audit_creation_date              2020-02-04
_audit_creation_method            'Pymatgen'
_symmetry_space_group_name_H-M    'P1'
_symmetry_Int_Tables_number       1
loop_
_symmetry_equiv_pos_as_xyz
  x,y,z
_cell_length_a                    19.6448
_cell_length_b                    19.6448
_cell_length_c                    37.9793
_cell_angle_alpha                 90.0
_cell_angle_beta                 90.0
_cell_angle_gamma                 90.0
loop_
_atom_site_label
_atom_site_type_symbol
_atom_site_fract_x
_atom_site_fract_y
_atom_site_fract_z
V1     V     0.0478   0.4045   0.3805
V2     V     0.9522   0.5955   0.6195
V3     V     0.9522   0.9045   0.3805
V4     V     0.0478   0.0955   0.6195
V5     V     0.5478   0.5955   0.3805
V6     V     0.4522   0.4045   0.6195
V7     V     0.4522   0.0955   0.3805
V8     V     0.5478   0.9045   0.6195
V9     V     0.0955   0.0478   0.8805
V10     V     0.9045   0.9522   0.1195
V11     V     0.5955   0.9522   0.8805
V12     V     0.4045   0.0478   0.1195
V13     V     0.4045   0.4522   0.8805
V14     V     0.5955   0.5478   0.1195
V15     V     0.9045   0.5478   0.8805
V16     V     0.0955   0.4522   0.1195
loop_
_geom_bond_atom_site_label_1
_geom_bond_atom_site_label_2
_geom_bond_distance
_geom_bond_site_symmetry_2
_ccdc_geom_bond_type
V1     V2    10.0   1_455     S
V1     V3    10.0   1_455     S
V1     V3    10.0   1_445     S
V1     V7    10.0   .     S
V1     V16    10.0   .     S
V2     V1    10.0   1_655     S
V2     V4    10.0   1_665     S
V2     V4    10.0   1_655     S
V2     V8    10.0   .     S
V2     V15    10.0   .     S
V3     V1    10.0   1_655     S
V3     V4    10.0   1_665     S
V3     V1    10.0   1_665     S
V3     V5    10.0   .     S
V3     V10    10.0   .     S
V4     V2    10.0   1_445     S
V4     V3    10.0   1_445     S
V4     V2    10.0   1_455     S
V4     V6    10.0   .     S
V4     V9    10.0   .     S
V5     V6    10.0   .     S
V5     V7    10.0   1_565     S
V5     V7    10.0   .     S
V5     V14    10.0   .     S
V6     V8    10.0   .     S
V6     V8    10.0   1_545     S
V6     V13    10.0   .     S
V7     V5    10.0   1_545     S
V7     V8    10.0   1_545     S
V7     V12    10.0   .     S
V8     V7    10.0   1_565     S
V8     V6    10.0   1_565     S
V8     V11    10.0   .     S
V9     V10    10.0   1_446     S
V9     V11    10.0   1_445     S
V9     V11    10.0   1_545     S
V9     V13    10.0   .     S
V10     V9    10.0   1_664     S
V10     V12    10.0   1_665     S
V10     V12    10.0   1_565     S
V10     V14    10.0   .     S
V11     V12    10.0   1_566     S
V11     V9    10.0   1_665     S
V11     V9    10.0   1_565     S
V11     V15    10.0   .     S
V12     V10    10.0   1_445     S
V12     V11    10.0   1_544     S
V12     V10    10.0   1_545     S
V12     V16    10.0   .     S
V13     V14    10.0   1_556     S
V13     V15    10.0   .     S
V13     V15    10.0   1_455     S
V14     V13    10.0   1_554     S
V14     V16    10.0   1_655     S
V14     V16    10.0   .     S
V15     V16    10.0   1_656     S
V15     V13    10.0   1_655     S
V16     V14    10.0   1_455     S
V16     V15    10.0   1_454     S
