data_zmd
_audit_creation_date              2020-02-04
_audit_creation_method            'Pymatgen'
_symmetry_space_group_name_H-M    'P1'
_symmetry_Int_Tables_number       1
loop_
_symmetry_equiv_pos_as_xyz
  x,y,z
_cell_length_a                    29.9999
_cell_length_b                    29.9999
_cell_length_c                    52.6601
_cell_angle_alpha                 90.0
_cell_angle_beta                 90.0
_cell_angle_gamma                 120.0
loop_
_atom_site_label
_atom_site_type_symbol
_atom_site_fract_x
_atom_site_fract_y
_atom_site_fract_z
V1     V     0.1111   0.8889   0.845
V2     V     0.1111   0.2222   0.845
V3     V     0.7778   0.8889   0.845
V4     V     0.8889   0.7778   0.155
V5     V     0.8889   0.1111   0.155
V6     V     0.2222   0.1111   0.155
Er7     Er     0.6667   0.0   0.0
Er8     Er     0.0   0.6667   0.0
Er9     Er     0.3333   0.3333   0.0
Er10     Er     0.3333   0.0   0.0
Er11     Er     0.0   0.3333   0.0
Er12     Er     0.6667   0.6667   0.5
V13     V     0.1111   0.8889   0.655
V14     V     0.1111   0.2222   0.655
V15     V     0.7778   0.8889   0.655
V16     V     0.8889   0.7778   0.345
V17     V     0.8889   0.1111   0.345
V18     V     0.2222   0.1111   0.345
Er19     Er     0.0   0.6667   0.5
Er20     Er     0.6667   0.0   0.5
Er21     Er     0.3333   0.3333   0.5
Er22     Er     0.3333   0.0   0.5
Er23     Er     0.0   0.3333   0.5
Er24     Er     0.6667   0.6667   0.0
loop_
_geom_bond_atom_site_label_1
_geom_bond_atom_site_label_2
_geom_bond_distance
_geom_bond_site_symmetry_2
_ccdc_geom_bond_type
V1     Er8    10.0   1_556     S
V1     Er10    10.0   1_566     S
V1     V3    10.0   1_455     S
V1     V2    10.0   1_565     S
V1     V13    10.0   .     S
V2     Er9    10.0   1_556     S
V2     Er11    10.0   1_556     S
V2     V3    10.0   1_445     S
V2     V1    10.0   1_545     S
V2     V14    10.0   .     S
V3     V2    10.0   1_665     S
V3     V1    10.0   1_655     S
V3     Er24    10.0   1_556     S
V3     Er7    10.0   1_566     S
V3     V15    10.0   .     S
V4     Er24    10.0   .     S
V4     Er8    10.0   1_655     S
V4     V5    10.0   1_565     S
V4     V6    10.0   1_665     S
V4     V16    10.0   .     S
V5     V4    10.0   1_545     S
V5     Er11    10.0   1_655     S
V5     Er7    10.0   .     S
V5     V6    10.0   1_655     S
V5     V17    10.0   .     S
V6     Er10    10.0   .     S
V6     Er9    10.0   .     S
V6     V4    10.0   1_445     S
V6     V5    10.0   1_455     S
V6     V18    10.0   .     S
Er7     V3    10.0   1_544     S
Er7     Er11    10.0   1_655     S
Er7     Er24    10.0   1_545     S
Er7     Er10    10.0   .     S
Er8     V1    10.0   1_554     S
Er8     V4    10.0   1_455     S
Er8     Er10    10.0   1_565     S
Er8     Er24    10.0   1_455     S
Er8     Er11    10.0   .     S
Er9     V2    10.0   1_554     S
Er9     Er10    10.0   .     S
Er9     Er11    10.0   .     S
Er9     Er24    10.0   .     S
Er10     V1    10.0   1_544     S
Er10     Er8    10.0   1_545     S
Er11     V2    10.0   1_554     S
Er11     V5    10.0   1_455     S
Er11     Er7    10.0   1_455     S
Er12     Er20    10.0   1_565     S
Er12     Er19    10.0   1_655     S
Er12     V15    10.0   .     S
Er12     V16    10.0   .     S
Er12     Er21    10.0   .     S
V13     Er19    10.0   .     S
V13     Er22    10.0   1_565     S
V13     V14    10.0   1_565     S
V13     V15    10.0   1_455     S
V14     V13    10.0   1_545     S
V14     Er21    10.0   .     S
V14     Er23    10.0   .     S
V14     V15    10.0   1_445     S
V15     V14    10.0   1_665     S
V15     V13    10.0   1_655     S
V15     Er20    10.0   1_565     S
V16     Er19    10.0   1_655     S
V16     V17    10.0   1_565     S
V16     V18    10.0   1_665     S
V17     V16    10.0   1_545     S
V17     Er20    10.0   .     S
V17     Er23    10.0   1_655     S
V17     V18    10.0   1_655     S
V18     V16    10.0   1_445     S
V18     Er21    10.0   .     S
V18     Er22    10.0   .     S
V18     V17    10.0   1_455     S
Er19     Er12    10.0   1_455     S
Er19     V16    10.0   1_455     S
Er19     Er22    10.0   1_565     S
Er19     Er23    10.0   .     S
Er20     Er12    10.0   1_545     S
Er20     V15    10.0   1_545     S
Er20     Er23    10.0   1_655     S
Er20     Er22    10.0   .     S
Er21     Er22    10.0   .     S
Er21     Er23    10.0   .     S
Er22     V13    10.0   1_545     S
Er22     Er19    10.0   1_545     S
Er23     V17    10.0   1_455     S
Er23     Er20    10.0   1_455     S
Er24     V3    10.0   1_554     S
Er24     Er7    10.0   1_565     S
Er24     Er8    10.0   1_655     S
