data_kgt
_audit_creation_date              2018-07-18
_audit_creation_method            'Materials Studio'
_symmetry_space_group_name_H-M    'P1'
_symmetry_Int_Tables_number       1
_symmetry_cell_setting            triclinic
loop_
_symmetry_equiv_pos_as_xyz
  x,y,z
_cell_length_a                    119.5090
_cell_length_b                    119.5090
_cell_length_c                    119.5090
_cell_angle_alpha                 90.0000
_cell_angle_beta                  90.0000
_cell_angle_gamma                 90.0000
loop_
_atom_site_label
_atom_site_type_symbol
_atom_site_fract_x
_atom_site_fract_y
_atom_site_fract_z
_atom_site_U_iso_or_equiv
_atom_site_adp_type
_atom_site_occupancy
V1     V     0.02100   0.13900   0.08780   0.00000  Uiso   1.00
Er2    Er    0.01080   0.06500   0.21300   0.00000  Uiso   1.00
Ce3    Ce    0.08670   0.09110   0.40840   0.00000  Uiso   1.00
S4     S     0.02230   0.14320   0.39650   0.00000  Uiso   1.00
H5     H     0.02970   0.35210   0.09490   0.00000  Uiso   1.00
He6    He    0.09870   0.47120   0.14150   0.00000  Uiso   1.00
Li7    Li    0.02980   0.21980   0.42920   0.00000  Uiso   1.00
Be8    Be    0.02790   0.43150   0.28040   0.00000  Uiso   1.00
B9     B     0.04050   0.27850   0.05660   0.00000  Uiso   1.00
V10    V     0.52100   0.63900   0.58780   0.00000  Uiso   1.00
Er11   Er    0.51080   0.56500   0.71300   0.00000  Uiso   1.00
Ce12   Ce    0.58670   0.59110   0.90840   0.00000  Uiso   1.00
S13    S     0.52230   0.64320   0.89650   0.00000  Uiso   1.00
H14    H     0.52970   0.85210   0.59490   0.00000  Uiso   1.00
He15   He    0.59870   0.97120   0.64150   0.00000  Uiso   1.00
Li16   Li    0.52980   0.71980   0.92920   0.00000  Uiso   1.00
Be17   Be    0.52790   0.93150   0.78040   0.00000  Uiso   1.00
B18    B     0.54050   0.77850   0.55660   0.00000  Uiso   1.00
V19    V     0.97900   0.86100   0.08780   0.00000  Uiso   1.00
Er20   Er    0.98920   0.93500   0.21300   0.00000  Uiso   1.00
Ce21   Ce    0.91330   0.90890   0.40840   0.00000  Uiso   1.00
S22    S     0.97770   0.85680   0.39650   0.00000  Uiso   1.00
H23    H     0.97030   0.64790   0.09490   0.00000  Uiso   1.00
He24   He    0.90130   0.52880   0.14150   0.00000  Uiso   1.00
Li25   Li    0.97020   0.78020   0.42920   0.00000  Uiso   1.00
Be26   Be    0.97210   0.56850   0.28040   0.00000  Uiso   1.00
B27    B     0.95950   0.72150   0.05660   0.00000  Uiso   1.00
V28    V     0.47900   0.36100   0.58780   0.00000  Uiso   1.00
Er29   Er    0.48920   0.43500   0.71300   0.00000  Uiso   1.00
Ce30   Ce    0.41330   0.40890   0.90840   0.00000  Uiso   1.00
S31    S     0.47770   0.35680   0.89650   0.00000  Uiso   1.00
H32    H     0.47030   0.14790   0.59490   0.00000  Uiso   1.00
He33   He    0.40130   0.02880   0.64150   0.00000  Uiso   1.00
Li34   Li    0.47020   0.28020   0.92920   0.00000  Uiso   1.00
Be35   Be    0.47210   0.06850   0.78040   0.00000  Uiso   1.00
B36    B     0.45950   0.22150   0.55660   0.00000  Uiso   1.00
V37    V     0.97900   0.13900   0.91220   0.00000  Uiso   1.00
Er38   Er    0.98920   0.06500   0.78700   0.00000  Uiso   1.00
Ce39   Ce    0.91330   0.09110   0.59160   0.00000  Uiso   1.00
S40    S     0.97770   0.14320   0.60350   0.00000  Uiso   1.00
H41    H     0.97030   0.35210   0.90510   0.00000  Uiso   1.00
He42   He    0.90130   0.47120   0.85850   0.00000  Uiso   1.00
Li43   Li    0.97020   0.21980   0.57080   0.00000  Uiso   1.00
Be44   Be    0.97210   0.43150   0.71960   0.00000  Uiso   1.00
B45    B     0.95950   0.27850   0.94340   0.00000  Uiso   1.00
V46    V     0.47900   0.63900   0.41220   0.00000  Uiso   1.00
Er47   Er    0.48920   0.56500   0.28700   0.00000  Uiso   1.00
Ce48   Ce    0.41330   0.59110   0.09160   0.00000  Uiso   1.00
S49    S     0.47770   0.64320   0.10350   0.00000  Uiso   1.00
H50    H     0.47030   0.85210   0.40510   0.00000  Uiso   1.00
He51   He    0.40130   0.97120   0.35850   0.00000  Uiso   1.00
Li52   Li    0.47020   0.71980   0.07080   0.00000  Uiso   1.00
Be53   Be    0.47210   0.93150   0.21960   0.00000  Uiso   1.00
B54    B     0.45950   0.77850   0.44340   0.00000  Uiso   1.00
V55    V     0.02100   0.86100   0.91220   0.00000  Uiso   1.00
Er56   Er    0.01080   0.93500   0.78700   0.00000  Uiso   1.00
Ce57   Ce    0.08670   0.90890   0.59160   0.00000  Uiso   1.00
S58    S     0.02230   0.85680   0.60350   0.00000  Uiso   1.00
H59    H     0.02970   0.64790   0.90510   0.00000  Uiso   1.00
He60   He    0.09870   0.52880   0.85850   0.00000  Uiso   1.00
Li61   Li    0.02980   0.78020   0.57080   0.00000  Uiso   1.00
Be62   Be    0.02790   0.56850   0.71960   0.00000  Uiso   1.00
B63    B     0.04050   0.72150   0.94340   0.00000  Uiso   1.00
V64    V     0.52100   0.36100   0.41220   0.00000  Uiso   1.00
Er65   Er    0.51080   0.43500   0.28700   0.00000  Uiso   1.00
Ce66   Ce    0.58670   0.40890   0.09160   0.00000  Uiso   1.00
S67    S     0.52230   0.35680   0.10350   0.00000  Uiso   1.00
H68    H     0.52970   0.14790   0.40510   0.00000  Uiso   1.00
He69   He    0.59870   0.02880   0.35850   0.00000  Uiso   1.00
Li70   Li    0.52980   0.28020   0.07080   0.00000  Uiso   1.00
Be71   Be    0.52790   0.06850   0.21960   0.00000  Uiso   1.00
B72    B     0.54050   0.22150   0.44340   0.00000  Uiso   1.00
V73    V     0.08780   0.02100   0.13900   0.00000  Uiso   1.00
Er74   Er    0.21300   0.01080   0.06500   0.00000  Uiso   1.00
Ce75   Ce    0.40840   0.08670   0.09110   0.00000  Uiso   1.00
S76    S     0.39650   0.02230   0.14320   0.00000  Uiso   1.00
H77    H     0.09490   0.02970   0.35210   0.00000  Uiso   1.00
He78   He    0.14150   0.09870   0.47120   0.00000  Uiso   1.00
Li79   Li    0.42920   0.02980   0.21980   0.00000  Uiso   1.00
Be80   Be    0.28040   0.02790   0.43150   0.00000  Uiso   1.00
B81    B     0.05660   0.04050   0.27850   0.00000  Uiso   1.00
V82    V     0.58780   0.52100   0.63900   0.00000  Uiso   1.00
Er83   Er    0.71300   0.51080   0.56500   0.00000  Uiso   1.00
Ce84   Ce    0.90840   0.58670   0.59110   0.00000  Uiso   1.00
S85    S     0.89650   0.52230   0.64320   0.00000  Uiso   1.00
H86    H     0.59490   0.52970   0.85210   0.00000  Uiso   1.00
He87   He    0.64150   0.59870   0.97120   0.00000  Uiso   1.00
Li88   Li    0.92920   0.52980   0.71980   0.00000  Uiso   1.00
Be89   Be    0.78040   0.52790   0.93150   0.00000  Uiso   1.00
B90    B     0.55660   0.54050   0.77850   0.00000  Uiso   1.00
V91    V     0.08780   0.97900   0.86100   0.00000  Uiso   1.00
Er92   Er    0.21300   0.98920   0.93500   0.00000  Uiso   1.00
Ce93   Ce    0.40840   0.91330   0.90890   0.00000  Uiso   1.00
S94    S     0.39650   0.97770   0.85680   0.00000  Uiso   1.00
H95    H     0.09490   0.97030   0.64790   0.00000  Uiso   1.00
He96   He    0.14150   0.90130   0.52880   0.00000  Uiso   1.00
Li97   Li    0.42920   0.97020   0.78020   0.00000  Uiso   1.00
Be98   Be    0.28040   0.97210   0.56850   0.00000  Uiso   1.00
B99    B     0.05660   0.95950   0.72150   0.00000  Uiso   1.00
V100   V     0.58780   0.47900   0.36100   0.00000  Uiso   1.00
Er101  Er    0.71300   0.48920   0.43500   0.00000  Uiso   1.00
Ce102  Ce    0.90840   0.41330   0.40890   0.00000  Uiso   1.00
S103   S     0.89650   0.47770   0.35680   0.00000  Uiso   1.00
H104   H     0.59490   0.47030   0.14790   0.00000  Uiso   1.00
He105  He    0.64150   0.40130   0.02880   0.00000  Uiso   1.00
Li106  Li    0.92920   0.47020   0.28020   0.00000  Uiso   1.00
Be107  Be    0.78040   0.47210   0.06850   0.00000  Uiso   1.00
B108   B     0.55660   0.45950   0.22150   0.00000  Uiso   1.00
V109   V     0.91220   0.97900   0.13900   0.00000  Uiso   1.00
Er110  Er    0.78700   0.98920   0.06500   0.00000  Uiso   1.00
Ce111  Ce    0.59160   0.91330   0.09110   0.00000  Uiso   1.00
S112   S     0.60350   0.97770   0.14320   0.00000  Uiso   1.00
H113   H     0.90510   0.97030   0.35210   0.00000  Uiso   1.00
He114  He    0.85850   0.90130   0.47120   0.00000  Uiso   1.00
Li115  Li    0.57080   0.97020   0.21980   0.00000  Uiso   1.00
Be116  Be    0.71960   0.97210   0.43150   0.00000  Uiso   1.00
B117   B     0.94340   0.95950   0.27850   0.00000  Uiso   1.00
V118   V     0.41220   0.47900   0.63900   0.00000  Uiso   1.00
Er119  Er    0.28700   0.48920   0.56500   0.00000  Uiso   1.00
Ce120  Ce    0.09160   0.41330   0.59110   0.00000  Uiso   1.00
S121   S     0.10350   0.47770   0.64320   0.00000  Uiso   1.00
H122   H     0.40510   0.47030   0.85210   0.00000  Uiso   1.00
He123  He    0.35850   0.40130   0.97120   0.00000  Uiso   1.00
Li124  Li    0.07080   0.47020   0.71980   0.00000  Uiso   1.00
Be125  Be    0.21960   0.47210   0.93150   0.00000  Uiso   1.00
B126   B     0.44340   0.45950   0.77850   0.00000  Uiso   1.00
V127   V     0.91220   0.02100   0.86100   0.00000  Uiso   1.00
Er128  Er    0.78700   0.01080   0.93500   0.00000  Uiso   1.00
Ce129  Ce    0.59160   0.08670   0.90890   0.00000  Uiso   1.00
S130   S     0.60350   0.02230   0.85680   0.00000  Uiso   1.00
H131   H     0.90510   0.02970   0.64790   0.00000  Uiso   1.00
He132  He    0.85850   0.09870   0.52880   0.00000  Uiso   1.00
Li133  Li    0.57080   0.02980   0.78020   0.00000  Uiso   1.00
Be134  Be    0.71960   0.02790   0.56850   0.00000  Uiso   1.00
B135   B     0.94340   0.04050   0.72150   0.00000  Uiso   1.00
V136   V     0.41220   0.52100   0.36100   0.00000  Uiso   1.00
Er137  Er    0.28700   0.51080   0.43500   0.00000  Uiso   1.00
Ce138  Ce    0.09160   0.58670   0.40890   0.00000  Uiso   1.00
S139   S     0.10350   0.52230   0.35680   0.00000  Uiso   1.00
H140   H     0.40510   0.52970   0.14790   0.00000  Uiso   1.00
He141  He    0.35850   0.59870   0.02880   0.00000  Uiso   1.00
Li142  Li    0.07080   0.52980   0.28020   0.00000  Uiso   1.00
Be143  Be    0.21960   0.52790   0.06850   0.00000  Uiso   1.00
B144   B     0.44340   0.54050   0.22150   0.00000  Uiso   1.00
V145   V     0.13900   0.08780   0.02100   0.00000  Uiso   1.00
Er146  Er    0.06500   0.21300   0.01080   0.00000  Uiso   1.00
Ce147  Ce    0.09110   0.40840   0.08670   0.00000  Uiso   1.00
S148   S     0.14320   0.39650   0.02230   0.00000  Uiso   1.00
H149   H     0.35210   0.09490   0.02970   0.00000  Uiso   1.00
He150  He    0.47120   0.14150   0.09870   0.00000  Uiso   1.00
Li151  Li    0.21980   0.42920   0.02980   0.00000  Uiso   1.00
Be152  Be    0.43150   0.28040   0.02790   0.00000  Uiso   1.00
B153   B     0.27850   0.05660   0.04050   0.00000  Uiso   1.00
V154   V     0.63900   0.58780   0.52100   0.00000  Uiso   1.00
Er155  Er    0.56500   0.71300   0.51080   0.00000  Uiso   1.00
Ce156  Ce    0.59110   0.90840   0.58670   0.00000  Uiso   1.00
S157   S     0.64320   0.89650   0.52230   0.00000  Uiso   1.00
H158   H     0.85210   0.59490   0.52970   0.00000  Uiso   1.00
He159  He    0.97120   0.64150   0.59870   0.00000  Uiso   1.00
Li160  Li    0.71980   0.92920   0.52980   0.00000  Uiso   1.00
Be161  Be    0.93150   0.78040   0.52790   0.00000  Uiso   1.00
B162   B     0.77850   0.55660   0.54050   0.00000  Uiso   1.00
V163   V     0.86100   0.08780   0.97900   0.00000  Uiso   1.00
Er164  Er    0.93500   0.21300   0.98920   0.00000  Uiso   1.00
Ce165  Ce    0.90890   0.40840   0.91330   0.00000  Uiso   1.00
S166   S     0.85680   0.39650   0.97770   0.00000  Uiso   1.00
H167   H     0.64790   0.09490   0.97030   0.00000  Uiso   1.00
He168  He    0.52880   0.14150   0.90130   0.00000  Uiso   1.00
Li169  Li    0.78020   0.42920   0.97020   0.00000  Uiso   1.00
Be170  Be    0.56850   0.28040   0.97210   0.00000  Uiso   1.00
B171   B     0.72150   0.05660   0.95950   0.00000  Uiso   1.00
V172   V     0.36100   0.58780   0.47900   0.00000  Uiso   1.00
Er173  Er    0.43500   0.71300   0.48920   0.00000  Uiso   1.00
Ce174  Ce    0.40890   0.90840   0.41330   0.00000  Uiso   1.00
S175   S     0.35680   0.89650   0.47770   0.00000  Uiso   1.00
H176   H     0.14790   0.59490   0.47030   0.00000  Uiso   1.00
He177  He    0.02880   0.64150   0.40130   0.00000  Uiso   1.00
Li178  Li    0.28020   0.92920   0.47020   0.00000  Uiso   1.00
Be179  Be    0.06850   0.78040   0.47210   0.00000  Uiso   1.00
B180   B     0.22150   0.55660   0.45950   0.00000  Uiso   1.00
V181   V     0.13900   0.91220   0.97900   0.00000  Uiso   1.00
Er182  Er    0.06500   0.78700   0.98920   0.00000  Uiso   1.00
Ce183  Ce    0.09110   0.59160   0.91330   0.00000  Uiso   1.00
S184   S     0.14320   0.60350   0.97770   0.00000  Uiso   1.00
H185   H     0.35210   0.90510   0.97030   0.00000  Uiso   1.00
He186  He    0.47120   0.85850   0.90130   0.00000  Uiso   1.00
Li187  Li    0.21980   0.57080   0.97020   0.00000  Uiso   1.00
Be188  Be    0.43150   0.71960   0.97210   0.00000  Uiso   1.00
B189   B     0.27850   0.94340   0.95950   0.00000  Uiso   1.00
V190   V     0.63900   0.41220   0.47900   0.00000  Uiso   1.00
Er191  Er    0.56500   0.28700   0.48920   0.00000  Uiso   1.00
Ce192  Ce    0.59110   0.09160   0.41330   0.00000  Uiso   1.00
S193   S     0.64320   0.10350   0.47770   0.00000  Uiso   1.00
H194   H     0.85210   0.40510   0.47030   0.00000  Uiso   1.00
He195  He    0.97120   0.35850   0.40130   0.00000  Uiso   1.00
Li196  Li    0.71980   0.07080   0.47020   0.00000  Uiso   1.00
Be197  Be    0.93150   0.21960   0.47210   0.00000  Uiso   1.00
B198   B     0.77850   0.44340   0.45950   0.00000  Uiso   1.00
V199   V     0.86100   0.91220   0.02100   0.00000  Uiso   1.00
Er200  Er    0.93500   0.78700   0.01080   0.00000  Uiso   1.00
Ce201  Ce    0.90890   0.59160   0.08670   0.00000  Uiso   1.00
S202   S     0.85680   0.60350   0.02230   0.00000  Uiso   1.00
H203   H     0.64790   0.90510   0.02970   0.00000  Uiso   1.00
He204  He    0.52880   0.85850   0.09870   0.00000  Uiso   1.00
Li205  Li    0.78020   0.57080   0.02980   0.00000  Uiso   1.00
Be206  Be    0.56850   0.71960   0.02790   0.00000  Uiso   1.00
B207   B     0.72150   0.94340   0.04050   0.00000  Uiso   1.00
V208   V     0.36100   0.41220   0.52100   0.00000  Uiso   1.00
Er209  Er    0.43500   0.28700   0.51080   0.00000  Uiso   1.00
Ce210  Ce    0.40890   0.09160   0.58670   0.00000  Uiso   1.00
S211   S     0.35680   0.10350   0.52230   0.00000  Uiso   1.00
H212   H     0.14790   0.40510   0.52970   0.00000  Uiso   1.00
He213  He    0.02880   0.35850   0.59870   0.00000  Uiso   1.00
Li214  Li    0.28020   0.07080   0.52980   0.00000  Uiso   1.00
Be215  Be    0.06850   0.21960   0.52790   0.00000  Uiso   1.00
B216   B     0.22150   0.44340   0.54050   0.00000  Uiso   1.00
V217   V     0.13900   0.02100   0.91220   0.00000  Uiso   1.00
Er218  Er    0.06500   0.01080   0.78700   0.00000  Uiso   1.00
Ce219  Ce    0.09110   0.08670   0.59160   0.00000  Uiso   1.00
S220   S     0.14320   0.02230   0.60350   0.00000  Uiso   1.00
H221   H     0.35210   0.02970   0.90510   0.00000  Uiso   1.00
He222  He    0.47120   0.09870   0.85850   0.00000  Uiso   1.00
Li223  Li    0.21980   0.02980   0.57080   0.00000  Uiso   1.00
Be224  Be    0.43150   0.02790   0.71960   0.00000  Uiso   1.00
B225   B     0.27850   0.04050   0.94340   0.00000  Uiso   1.00
V226   V     0.63900   0.52100   0.41220   0.00000  Uiso   1.00
Er227  Er    0.56500   0.51080   0.28700   0.00000  Uiso   1.00
Ce228  Ce    0.59110   0.58670   0.09160   0.00000  Uiso   1.00
S229   S     0.64320   0.52230   0.10350   0.00000  Uiso   1.00
H230   H     0.85210   0.52970   0.40510   0.00000  Uiso   1.00
He231  He    0.97120   0.59870   0.35850   0.00000  Uiso   1.00
Li232  Li    0.71980   0.52980   0.07080   0.00000  Uiso   1.00
Be233  Be    0.93150   0.52790   0.21960   0.00000  Uiso   1.00
B234   B     0.77850   0.54050   0.44340   0.00000  Uiso   1.00
V235   V     0.86100   0.97900   0.91220   0.00000  Uiso   1.00
Er236  Er    0.93500   0.98920   0.78700   0.00000  Uiso   1.00
Ce237  Ce    0.90890   0.91330   0.59160   0.00000  Uiso   1.00
S238   S     0.85680   0.97770   0.60350   0.00000  Uiso   1.00
H239   H     0.64790   0.97030   0.90510   0.00000  Uiso   1.00
He240  He    0.52880   0.90130   0.85850   0.00000  Uiso   1.00
Li241  Li    0.78020   0.97020   0.57080   0.00000  Uiso   1.00
Be242  Be    0.56850   0.97210   0.71960   0.00000  Uiso   1.00
B243   B     0.72150   0.95950   0.94340   0.00000  Uiso   1.00
V244   V     0.36100   0.47900   0.41220   0.00000  Uiso   1.00
Er245  Er    0.43500   0.48920   0.28700   0.00000  Uiso   1.00
Ce246  Ce    0.40890   0.41330   0.09160   0.00000  Uiso   1.00
S247   S     0.35680   0.47770   0.10350   0.00000  Uiso   1.00
H248   H     0.14790   0.47030   0.40510   0.00000  Uiso   1.00
He249  He    0.02880   0.40130   0.35850   0.00000  Uiso   1.00
Li250  Li    0.28020   0.47020   0.07080   0.00000  Uiso   1.00
Be251  Be    0.06850   0.47210   0.21960   0.00000  Uiso   1.00
B252   B     0.22150   0.45950   0.44340   0.00000  Uiso   1.00
V253   V     0.13900   0.97900   0.08780   0.00000  Uiso   1.00
Er254  Er    0.06500   0.98920   0.21300   0.00000  Uiso   1.00
Ce255  Ce    0.09110   0.91330   0.40840   0.00000  Uiso   1.00
S256   S     0.14320   0.97770   0.39650   0.00000  Uiso   1.00
H257   H     0.35210   0.97030   0.09490   0.00000  Uiso   1.00
He258  He    0.47120   0.90130   0.14150   0.00000  Uiso   1.00
Li259  Li    0.21980   0.97020   0.42920   0.00000  Uiso   1.00
Be260  Be    0.43150   0.97210   0.28040   0.00000  Uiso   1.00
B261   B     0.27850   0.95950   0.05660   0.00000  Uiso   1.00
V262   V     0.63900   0.47900   0.58780   0.00000  Uiso   1.00
Er263  Er    0.56500   0.48920   0.71300   0.00000  Uiso   1.00
Ce264  Ce    0.59110   0.41330   0.90840   0.00000  Uiso   1.00
S265   S     0.64320   0.47770   0.89650   0.00000  Uiso   1.00
H266   H     0.85210   0.47030   0.59490   0.00000  Uiso   1.00
He267  He    0.97120   0.40130   0.64150   0.00000  Uiso   1.00
Li268  Li    0.71980   0.47020   0.92920   0.00000  Uiso   1.00
Be269  Be    0.93150   0.47210   0.78040   0.00000  Uiso   1.00
B270   B     0.77850   0.45950   0.55660   0.00000  Uiso   1.00
V271   V     0.86100   0.02100   0.08780   0.00000  Uiso   1.00
Er272  Er    0.93500   0.01080   0.21300   0.00000  Uiso   1.00
Ce273  Ce    0.90890   0.08670   0.40840   0.00000  Uiso   1.00
S274   S     0.85680   0.02230   0.39650   0.00000  Uiso   1.00
H275   H     0.64790   0.02970   0.09490   0.00000  Uiso   1.00
He276  He    0.52880   0.09870   0.14150   0.00000  Uiso   1.00
Li277  Li    0.78020   0.02980   0.42920   0.00000  Uiso   1.00
Be278  Be    0.56850   0.02790   0.28040   0.00000  Uiso   1.00
B279   B     0.72150   0.04050   0.05660   0.00000  Uiso   1.00
V280   V     0.36100   0.52100   0.58780   0.00000  Uiso   1.00
Er281  Er    0.43500   0.51080   0.71300   0.00000  Uiso   1.00
Ce282  Ce    0.40890   0.58670   0.90840   0.00000  Uiso   1.00
S283   S     0.35680   0.52230   0.89650   0.00000  Uiso   1.00
H284   H     0.14790   0.52970   0.59490   0.00000  Uiso   1.00
He285  He    0.02880   0.59870   0.64150   0.00000  Uiso   1.00
Li286  Li    0.28020   0.52980   0.92920   0.00000  Uiso   1.00
Be287  Be    0.06850   0.52790   0.78040   0.00000  Uiso   1.00
B288   B     0.22150   0.54050   0.55660   0.00000  Uiso   1.00
V289   V     0.02100   0.08780   0.86100   0.00000  Uiso   1.00
Er290  Er    0.01080   0.21300   0.93500   0.00000  Uiso   1.00
Ce291  Ce    0.08670   0.40840   0.90890   0.00000  Uiso   1.00
S292   S     0.02230   0.39650   0.85680   0.00000  Uiso   1.00
H293   H     0.02970   0.09490   0.64790   0.00000  Uiso   1.00
He294  He    0.09870   0.14150   0.52880   0.00000  Uiso   1.00
Li295  Li    0.02980   0.42920   0.78020   0.00000  Uiso   1.00
Be296  Be    0.02790   0.28040   0.56850   0.00000  Uiso   1.00
B297   B     0.04050   0.05660   0.72150   0.00000  Uiso   1.00
V298   V     0.52100   0.58780   0.36100   0.00000  Uiso   1.00
Er299  Er    0.51080   0.71300   0.43500   0.00000  Uiso   1.00
Ce300  Ce    0.58670   0.90840   0.40890   0.00000  Uiso   1.00
S301   S     0.52230   0.89650   0.35680   0.00000  Uiso   1.00
H302   H     0.52970   0.59490   0.14790   0.00000  Uiso   1.00
He303  He    0.59870   0.64150   0.02880   0.00000  Uiso   1.00
Li304  Li    0.52980   0.92920   0.28020   0.00000  Uiso   1.00
Be305  Be    0.52790   0.78040   0.06850   0.00000  Uiso   1.00
B306   B     0.54050   0.55660   0.22150   0.00000  Uiso   1.00
V307   V     0.97900   0.08780   0.13900   0.00000  Uiso   1.00
Er308  Er    0.98920   0.21300   0.06500   0.00000  Uiso   1.00
Ce309  Ce    0.91330   0.40840   0.09110   0.00000  Uiso   1.00
S310   S     0.97770   0.39650   0.14320   0.00000  Uiso   1.00
H311   H     0.97030   0.09490   0.35210   0.00000  Uiso   1.00
He312  He    0.90130   0.14150   0.47120   0.00000  Uiso   1.00
Li313  Li    0.97020   0.42920   0.21980   0.00000  Uiso   1.00
Be314  Be    0.97210   0.28040   0.43150   0.00000  Uiso   1.00
B315   B     0.95950   0.05660   0.27850   0.00000  Uiso   1.00
V316   V     0.47900   0.58780   0.63900   0.00000  Uiso   1.00
Er317  Er    0.48920   0.71300   0.56500   0.00000  Uiso   1.00
Ce318  Ce    0.41330   0.90840   0.59110   0.00000  Uiso   1.00
S319   S     0.47770   0.89650   0.64320   0.00000  Uiso   1.00
H320   H     0.47030   0.59490   0.85210   0.00000  Uiso   1.00
He321  He    0.40130   0.64150   0.97120   0.00000  Uiso   1.00
Li322  Li    0.47020   0.92920   0.71980   0.00000  Uiso   1.00
Be323  Be    0.47210   0.78040   0.93150   0.00000  Uiso   1.00
B324   B     0.45950   0.55660   0.77850   0.00000  Uiso   1.00
V325   V     0.97900   0.91220   0.86100   0.00000  Uiso   1.00
Er326  Er    0.98920   0.78700   0.93500   0.00000  Uiso   1.00
Ce327  Ce    0.91330   0.59160   0.90890   0.00000  Uiso   1.00
S328   S     0.97770   0.60350   0.85680   0.00000  Uiso   1.00
H329   H     0.97030   0.90510   0.64790   0.00000  Uiso   1.00
He330  He    0.90130   0.85850   0.52880   0.00000  Uiso   1.00
Li331  Li    0.97020   0.57080   0.78020   0.00000  Uiso   1.00
Be332  Be    0.97210   0.71960   0.56850   0.00000  Uiso   1.00
B333   B     0.95950   0.94340   0.72150   0.00000  Uiso   1.00
V334   V     0.47900   0.41220   0.36100   0.00000  Uiso   1.00
Er335  Er    0.48920   0.28700   0.43500   0.00000  Uiso   1.00
Ce336  Ce    0.41330   0.09160   0.40890   0.00000  Uiso   1.00
S337   S     0.47770   0.10350   0.35680   0.00000  Uiso   1.00
H338   H     0.47030   0.40510   0.14790   0.00000  Uiso   1.00
He339  He    0.40130   0.35850   0.02880   0.00000  Uiso   1.00
Li340  Li    0.47020   0.07080   0.28020   0.00000  Uiso   1.00
Be341  Be    0.47210   0.21960   0.06850   0.00000  Uiso   1.00
B342   B     0.45950   0.44340   0.22150   0.00000  Uiso   1.00
V343   V     0.02100   0.91220   0.13900   0.00000  Uiso   1.00
Er344  Er    0.01080   0.78700   0.06500   0.00000  Uiso   1.00
Ce345  Ce    0.08670   0.59160   0.09110   0.00000  Uiso   1.00
S346   S     0.02230   0.60350   0.14320   0.00000  Uiso   1.00
H347   H     0.02970   0.90510   0.35210   0.00000  Uiso   1.00
He348  He    0.09870   0.85850   0.47120   0.00000  Uiso   1.00
Li349  Li    0.02980   0.57080   0.21980   0.00000  Uiso   1.00
Be350  Be    0.02790   0.71960   0.43150   0.00000  Uiso   1.00
B351   B     0.04050   0.94340   0.27850   0.00000  Uiso   1.00
V352   V     0.52100   0.41220   0.63900   0.00000  Uiso   1.00
Er353  Er    0.51080   0.28700   0.56500   0.00000  Uiso   1.00
Ce354  Ce    0.58670   0.09160   0.59110   0.00000  Uiso   1.00
S355   S     0.52230   0.10350   0.64320   0.00000  Uiso   1.00
H356   H     0.52970   0.40510   0.85210   0.00000  Uiso   1.00
He357  He    0.59870   0.35850   0.97120   0.00000  Uiso   1.00
Li358  Li    0.52980   0.07080   0.71980   0.00000  Uiso   1.00
Be359  Be    0.52790   0.21960   0.93150   0.00000  Uiso   1.00
B360   B     0.54050   0.44340   0.77850   0.00000  Uiso   1.00
V361   V     0.08780   0.13900   0.97900   0.00000  Uiso   1.00
Er362  Er    0.21300   0.06500   0.98920   0.00000  Uiso   1.00
Ce363  Ce    0.40840   0.09110   0.91330   0.00000  Uiso   1.00
S364   S     0.39650   0.14320   0.97770   0.00000  Uiso   1.00
H365   H     0.09490   0.35210   0.97030   0.00000  Uiso   1.00
He366  He    0.14150   0.47120   0.90130   0.00000  Uiso   1.00
Li367  Li    0.42920   0.21980   0.97020   0.00000  Uiso   1.00
Be368  Be    0.28040   0.43150   0.97210   0.00000  Uiso   1.00
B369   B     0.05660   0.27850   0.95950   0.00000  Uiso   1.00
V370   V     0.58780   0.63900   0.47900   0.00000  Uiso   1.00
Er371  Er    0.71300   0.56500   0.48920   0.00000  Uiso   1.00
Ce372  Ce    0.90840   0.59110   0.41330   0.00000  Uiso   1.00
S373   S     0.89650   0.64320   0.47770   0.00000  Uiso   1.00
H374   H     0.59490   0.85210   0.47030   0.00000  Uiso   1.00
He375  He    0.64150   0.97120   0.40130   0.00000  Uiso   1.00
Li376  Li    0.92920   0.71980   0.47020   0.00000  Uiso   1.00
Be377  Be    0.78040   0.93150   0.47210   0.00000  Uiso   1.00
B378   B     0.55660   0.77850   0.45950   0.00000  Uiso   1.00
V379   V     0.08780   0.86100   0.02100   0.00000  Uiso   1.00
Er380  Er    0.21300   0.93500   0.01080   0.00000  Uiso   1.00
Ce381  Ce    0.40840   0.90890   0.08670   0.00000  Uiso   1.00
S382   S     0.39650   0.85680   0.02230   0.00000  Uiso   1.00
H383   H     0.09490   0.64790   0.02970   0.00000  Uiso   1.00
He384  He    0.14150   0.52880   0.09870   0.00000  Uiso   1.00
Li385  Li    0.42920   0.78020   0.02980   0.00000  Uiso   1.00
Be386  Be    0.28040   0.56850   0.02790   0.00000  Uiso   1.00
B387   B     0.05660   0.72150   0.04050   0.00000  Uiso   1.00
V388   V     0.58780   0.36100   0.52100   0.00000  Uiso   1.00
Er389  Er    0.71300   0.43500   0.51080   0.00000  Uiso   1.00
Ce390  Ce    0.90840   0.40890   0.58670   0.00000  Uiso   1.00
S391   S     0.89650   0.35680   0.52230   0.00000  Uiso   1.00
H392   H     0.59490   0.14790   0.52970   0.00000  Uiso   1.00
He393  He    0.64150   0.02880   0.59870   0.00000  Uiso   1.00
Li394  Li    0.92920   0.28020   0.52980   0.00000  Uiso   1.00
Be395  Be    0.78040   0.06850   0.52790   0.00000  Uiso   1.00
B396   B     0.55660   0.22150   0.54050   0.00000  Uiso   1.00
V397   V     0.91220   0.13900   0.02100   0.00000  Uiso   1.00
Er398  Er    0.78700   0.06500   0.01080   0.00000  Uiso   1.00
Ce399  Ce    0.59160   0.09110   0.08670   0.00000  Uiso   1.00
S400   S     0.60350   0.14320   0.02230   0.00000  Uiso   1.00
H401   H     0.90510   0.35210   0.02970   0.00000  Uiso   1.00
He402  He    0.85850   0.47120   0.09870   0.00000  Uiso   1.00
Li403  Li    0.57080   0.21980   0.02980   0.00000  Uiso   1.00
Be404  Be    0.71960   0.43150   0.02790   0.00000  Uiso   1.00
B405   B     0.94340   0.27850   0.04050   0.00000  Uiso   1.00
V406   V     0.41220   0.63900   0.52100   0.00000  Uiso   1.00
Er407  Er    0.28700   0.56500   0.51080   0.00000  Uiso   1.00
Ce408  Ce    0.09160   0.59110   0.58670   0.00000  Uiso   1.00
S409   S     0.10350   0.64320   0.52230   0.00000  Uiso   1.00
H410   H     0.40510   0.85210   0.52970   0.00000  Uiso   1.00
He411  He    0.35850   0.97120   0.59870   0.00000  Uiso   1.00
Li412  Li    0.07080   0.71980   0.52980   0.00000  Uiso   1.00
Be413  Be    0.21960   0.93150   0.52790   0.00000  Uiso   1.00
B414   B     0.44340   0.77850   0.54050   0.00000  Uiso   1.00
V415   V     0.91220   0.86100   0.97900   0.00000  Uiso   1.00
Er416  Er    0.78700   0.93500   0.98920   0.00000  Uiso   1.00
Ce417  Ce    0.59160   0.90890   0.91330   0.00000  Uiso   1.00
S418   S     0.60350   0.85680   0.97770   0.00000  Uiso   1.00
H419   H     0.90510   0.64790   0.97030   0.00000  Uiso   1.00
He420  He    0.85850   0.52880   0.90130   0.00000  Uiso   1.00
Li421  Li    0.57080   0.78020   0.97020   0.00000  Uiso   1.00
Be422  Be    0.71960   0.56850   0.97210   0.00000  Uiso   1.00
B423   B     0.94340   0.72150   0.95950   0.00000  Uiso   1.00
V424   V     0.41220   0.36100   0.47900   0.00000  Uiso   1.00
Er425  Er    0.28700   0.43500   0.48920   0.00000  Uiso   1.00
Ce426  Ce    0.09160   0.40890   0.41330   0.00000  Uiso   1.00
S427   S     0.10350   0.35680   0.47770   0.00000  Uiso   1.00
H428   H     0.40510   0.14790   0.47030   0.00000  Uiso   1.00
He429  He    0.35850   0.02880   0.40130   0.00000  Uiso   1.00
Li430  Li    0.07080   0.28020   0.47020   0.00000  Uiso   1.00
Be431  Be    0.21960   0.06850   0.47210   0.00000  Uiso   1.00
B432   B     0.44340   0.22150   0.45950   0.00000  Uiso   1.00
Ti433  Ti    0.08250   0.08250   0.08250   0.00000  Uiso   1.00
Ti434  Ti    0.58250   0.58250   0.58250   0.00000  Uiso   1.00
Ti435  Ti    0.91750   0.91750   0.08250   0.00000  Uiso   1.00
Ti436  Ti    0.41750   0.41750   0.58250   0.00000  Uiso   1.00
Ti437  Ti    0.91750   0.08250   0.91750   0.00000  Uiso   1.00
Ti438  Ti    0.41750   0.58250   0.41750   0.00000  Uiso   1.00
Ti439  Ti    0.08250   0.91750   0.91750   0.00000  Uiso   1.00
Ti440  Ti    0.58250   0.41750   0.41750   0.00000  Uiso   1.00
Ti441  Ti    0.08250   0.08250   0.91750   0.00000  Uiso   1.00
Ti442  Ti    0.58250   0.58250   0.41750   0.00000  Uiso   1.00
Ti443  Ti    0.91750   0.91750   0.91750   0.00000  Uiso   1.00
Ti444  Ti    0.41750   0.41750   0.41750   0.00000  Uiso   1.00
Ti445  Ti    0.08250   0.91750   0.08250   0.00000  Uiso   1.00
Ti446  Ti    0.58250   0.41750   0.58250   0.00000  Uiso   1.00
Ti447  Ti    0.91750   0.08250   0.08250   0.00000  Uiso   1.00
Ti448  Ti    0.41750   0.58250   0.58250   0.00000  Uiso   1.00
loop_
_geom_bond_atom_site_label_1
_geom_bond_atom_site_label_2
_geom_bond_distance
_geom_bond_site_symmetry_2
_ccdc_geom_bond_type
V1     Er308  10.004   1_455 S
V1     V307   10.004   1_455 S
V1     Ti433  10.001   .     S
Er2    V307   10.004   1_455 S
Er2    B81     9.990   .     S
Er2    B315    9.993   1_455 S
Ce3    S4     10.001   .     S
Ce3    He78   10.002   .     S
Ce3    H77    10.004   .     S
S4     H311   10.005   1_455 S
S4     Li7     9.994   .     S
H5     S310   10.005   1_455 S
H5     B9      9.999   .     S
H5     Ce147  10.004   .     S
He6    Ce147  10.002   .     S
He6    Be251  10.008   .     S
He6    He384   9.986   .     S
Li7    Li430  10.006   .     S
Li7    Be314  10.004   1_455 S
Be8    He249  10.008   .     S
Be8    Be251   9.994   .     S
Be8    Li313  10.004   1_455 S
B9     Er146   9.990   .     S
B9     Er308   9.993   1_455 S
V10    Er317  10.004   .     S
V10    V316   10.004   .     S
V10    Ti434  10.001   .     S
Er11   V316   10.004   .     S
Er11   B90     9.990   .     S
Er11   B324    9.993   .     S
Ce12   S13    10.001   .     S
Ce12   He87   10.002   .     S
Ce12   H86    10.004   .     S
S13    H320   10.005   .     S
S13    Li16    9.994   .     S
H14    S319   10.005   .     S
H14    B18     9.999   .     S
H14    Ce156  10.004   .     S
He15   Ce156  10.002   .     S
He15   Be242  10.008   .     S
He15   He393   9.986   1_565 S
Li16   Li421  10.006   .     S
Li16   Be323  10.004   .     S
Be17   He240  10.008   .     S
Be17   Be242   9.994   .     S
Be17   Li322  10.004   .     S
B18    Er155   9.990   .     S
B18    Er317   9.993   .     S
V19    Er344  10.004   1_655 S
V19    V343   10.004   1_655 S
V19    Ti435  10.001   .     S
Er20   V343   10.004   1_655 S
Er20   B117    9.990   .     S
Er20   B351    9.993   1_655 S
Ce21   S22    10.001   .     S
Ce21   He114  10.002   .     S
Ce21   H113   10.004   .     S
S22    H347   10.005   1_655 S
S22    Li25    9.994   .     S
H23    S346   10.005   1_655 S
H23    B27     9.999   .     S
H23    Ce201  10.004   .     S
He24   Ce201  10.002   .     S
He24   Be233  10.008   .     S
He24   He402   9.986   .     S
Li25   Li376  10.006   .     S
Li25   Be350  10.004   1_655 S
Be26   He231  10.008   .     S
Be26   Be233   9.994   .     S
Be26   Li349  10.004   1_655 S
B27    Er200   9.990   .     S
B27    Er344   9.993   1_655 S
V28    Er353  10.004   .     S
V28    V352   10.004   .     S
V28    Ti436  10.001   .     S
Er29   V352   10.004   .     S
Er29   B126    9.990   .     S
Er29   B360    9.993   .     S
Ce30   S31    10.001   .     S
Ce30   He123  10.002   .     S
Ce30   H122   10.004   .     S
S31    H356   10.005   .     S
S31    Li34    9.994   .     S
H32    S355   10.005   .     S
H32    B36     9.999   .     S
H32    Ce210  10.004   .     S
He33   Ce210  10.002   .     S
He33   Be224  10.008   .     S
He33   He411   9.986   1_545 S
Li34   Li367  10.006   .     S
Li34   Be359  10.004   .     S
Be35   He222  10.008   .     S
Be35   Be224   9.994   .     S
Be35   Li358  10.004   .     S
B36    Er209   9.990   .     S
B36    Er353   9.993   .     S
V37    Er290  10.004   1_655 S
V37    V289   10.004   1_655 S
V37    Ti437  10.001   .     S
Er38   V289   10.004   1_655 S
Er38   B135    9.990   .     S
Er38   B297    9.993   1_655 S
Ce39   S40    10.001   .     S
Ce39   He132  10.002   .     S
Ce39   H131   10.004   .     S
S40    H293   10.005   1_655 S
S40    Li43    9.994   .     S
H41    S292   10.005   1_655 S
H41    B45     9.999   .     S
H41    Ce165  10.004   .     S
He42   Ce165  10.002   .     S
He42   Be269  10.008   .     S
He42   He420   9.986   .     S
Li43   Li394  10.006   .     S
Li43   Be296  10.004   1_655 S
Be44   He267  10.008   .     S
Be44   Be269   9.994   .     S
Be44   Li295  10.004   1_655 S
B45    Er164   9.990   .     S
B45    Er290   9.993   1_655 S
V46    Er299  10.004   .     S
V46    V298   10.004   .     S
V46    Ti438  10.001   .     S
Er47   V298   10.004   .     S
Er47   B144    9.990   .     S
Er47   B306    9.993   .     S
Ce48   S49    10.001   .     S
Ce48   He141  10.002   .     S
Ce48   H140   10.004   .     S
S49    H302   10.005   .     S
S49    Li52    9.994   .     S
H50    S301   10.005   .     S
H50    B54     9.999   .     S
H50    Ce174  10.004   .     S
He51   Ce174  10.002   .     S
He51   Be260  10.008   .     S
He51   He429   9.986   1_565 S
Li52   Li385  10.006   .     S
Li52   Be305  10.004   .     S
Be53   He258  10.008   .     S
Be53   Be260   9.994   .     S
Be53   Li304  10.004   .     S
B54    Er173   9.990   .     S
B54    Er299   9.993   .     S
V55    Er326  10.004   1_455 S
V55    V325   10.004   1_455 S
V55    Ti439  10.001   .     S
Er56   V325   10.004   1_455 S
Er56   B99     9.990   .     S
Er56   B333    9.993   1_455 S
Ce57   S58    10.001   .     S
Ce57   He96   10.002   .     S
Ce57   H95    10.004   .     S
S58    H329   10.005   1_455 S
S58    Li61    9.994   .     S
H59    S328   10.005   1_455 S
H59    B63     9.999   .     S
H59    Ce183  10.004   .     S
He60   Ce183  10.002   .     S
He60   Be287  10.008   .     S
He60   He366   9.986   .     S
Li61   Li412  10.006   .     S
Li61   Be332  10.004   1_455 S
Be62   He285  10.008   .     S
Be62   Be287   9.994   .     S
Be62   Li331  10.004   1_455 S
B63    Er182   9.990   .     S
B63    Er326   9.993   1_455 S
V64    Er335  10.004   .     S
V64    V334   10.004   .     S
V64    Ti440  10.001   .     S
Er65   V334   10.004   .     S
Er65   B108    9.990   .     S
Er65   B342    9.993   .     S
Ce66   S67    10.001   .     S
Ce66   He105  10.002   .     S
Ce66   H104   10.004   .     S
S67    H338   10.005   .     S
S67    Li70    9.994   .     S
H68    S337   10.005   .     S
H68    B72     9.999   .     S
H68    Ce192  10.004   .     S
He69   Ce192  10.002   .     S
He69   Be278  10.008   .     S
He69   He375   9.986   1_545 S
Li70   Li403  10.006   .     S
Li70   Be341  10.004   .     S
Be71   He276  10.008   .     S
Be71   Be278   9.994   .     S
Be71   Li340  10.004   .     S
B72    Er191   9.990   .     S
B72    Er335   9.993   .     S
V73    Er254  10.004   1_545 S
V73    V253   10.004   1_545 S
V73    Ti433  10.001   .     S
Er74   V253   10.004   1_545 S
Er74   B153    9.990   .     S
Er74   B261    9.993   1_545 S
Ce75   S76    10.001   .     S
Ce75   He150  10.002   .     S
Ce75   H149   10.004   .     S
S76    H257   10.005   1_545 S
S76    Li79    9.994   .     S
H77    S256   10.005   1_545 S
H77    B81     9.999   .     S
He78   Be431  10.008   .     S
He78   He294   9.986   .     S
Li79   Li340  10.006   .     S
Li79   Be260  10.004   1_545 S
Be80   He429  10.008   .     S
Be80   Be431   9.994   .     S
Be80   Li259  10.004   1_545 S
B81    Er254   9.993   1_545 S
V82    Er263  10.004   .     S
V82    V262   10.004   .     S
V82    Ti434  10.001   .     S
Er83   V262   10.004   .     S
Er83   B162    9.990   .     S
Er83   B270    9.993   .     S
Ce84   S85    10.001   .     S
Ce84   He159  10.002   .     S
Ce84   H158   10.004   .     S
S85    H266   10.005   .     S
S85    Li88    9.994   .     S
H86    S265   10.005   .     S
H86    B90     9.999   .     S
He87   Be422  10.008   .     S
He87   He303   9.986   1_556 S
Li88   Li331  10.006   .     S
Li88   Be269  10.004   .     S
Be89   He420  10.008   .     S
Be89   Be422   9.994   .     S
Be89   Li268  10.004   .     S
B90    Er263   9.993   .     S
V91    Er218  10.004   1_565 S
V91    V217   10.004   1_565 S
V91    Ti439  10.001   .     S
Er92   V217   10.004   1_565 S
Er92   B189    9.990   .     S
Er92   B225    9.993   1_565 S
Ce93   S94    10.001   .     S
Ce93   He186  10.002   .     S
Ce93   H185   10.004   .     S
S94    H221   10.005   1_565 S
S94    Li97    9.994   .     S
H95    S220   10.005   1_565 S
H95    B99     9.999   .     S
He96   Be413  10.008   .     S
He96   He348   9.986   .     S
Li97   Li322  10.006   .     S
Li97   Be224  10.004   1_565 S
Be98   He411  10.008   .     S
Be98   Be413   9.994   .     S
Be98   Li223  10.004   1_565 S
B99    Er218   9.993   1_565 S
V100   Er227  10.004   .     S
V100   V226   10.004   .     S
V100   Ti440  10.001   .     S
Er101  V226   10.004   .     S
Er101  B198    9.990   .     S
Er101  B234    9.993   .     S
Ce102  S103   10.001   .     S
Ce102  He195  10.002   .     S
Ce102  H194   10.004   .     S
S103   H230   10.005   .     S
S103   Li106   9.994   .     S
H104   S229   10.005   .     S
H104   B108    9.999   .     S
He105  Be404  10.008   .     S
He105  He357   9.986   1_554 S
Li106  Li313  10.006   .     S
Li106  Be233  10.004   .     S
Be107  He402  10.008   .     S
Be107  Be404   9.994   .     S
Be107  Li232  10.004   .     S
B108   Er227   9.993   .     S
V109   Er272  10.004   1_565 S
V109   V271   10.004   1_565 S
V109   Ti435  10.001   .     S
Er110  V271   10.004   1_565 S
Er110  B207    9.990   .     S
Er110  B279    9.993   1_565 S
Ce111  S112   10.001   .     S
Ce111  He204  10.002   .     S
Ce111  H203   10.004   .     S
S112   H275   10.005   1_565 S
S112   Li115   9.994   .     S
H113   S274   10.005   1_565 S
H113   B117    9.999   .     S
He114  Be377  10.008   .     S
He114  He330   9.986   .     S
Li115  Li304  10.006   .     S
Li115  Be278  10.004   1_565 S
Be116  He375  10.008   .     S
Be116  Be377   9.994   .     S
Be116  Li277  10.004   1_565 S
B117   Er272   9.993   1_565 S
V118   Er281  10.004   .     S
V118   V280   10.004   .     S
V118   Ti436  10.001   .     S
Er119  V280   10.004   .     S
Er119  B216    9.990   .     S
Er119  B288    9.993   .     S
Ce120  S121   10.001   .     S
Ce120  He213  10.002   .     S
Ce120  H212   10.004   .     S
S121   H284   10.005   .     S
S121   Li124   9.994   .     S
H122   S283   10.005   .     S
H122   B126    9.999   .     S
He123  Be368  10.008   .     S
He123  He339   9.986   1_556 S
Li124  Li295  10.006   .     S
Li124  Be287  10.004   .     S
Be125  He366  10.008   .     S
Be125  Be368   9.994   .     S
Be125  Li286  10.004   .     S
B126   Er281   9.993   .     S
V127   Er236  10.004   1_545 S
V127   V235   10.004   1_545 S
V127   Ti437  10.001   .     S
Er128  V235   10.004   1_545 S
Er128  B171    9.990   .     S
Er128  B243    9.993   1_545 S
Ce129  S130   10.001   .     S
Ce129  He168  10.002   .     S
Ce129  H167   10.004   .     S
S130   H239   10.005   1_545 S
S130   Li133   9.994   .     S
H131   S238   10.005   1_545 S
H131   B135    9.999   .     S
He132  Be395  10.008   .     S
He132  He312   9.986   .     S
Li133  Li358  10.006   .     S
Li133  Be242  10.004   1_545 S
Be134  He393  10.008   .     S
Be134  Be395   9.994   .     S
Be134  Li241  10.004   1_545 S
B135   Er236   9.993   1_545 S
V136   Er245  10.004   .     S
V136   V244   10.004   .     S
V136   Ti438  10.001   .     S
Er137  V244   10.004   .     S
Er137  B180    9.990   .     S
Er137  B252    9.993   .     S
Ce138  S139   10.001   .     S
Ce138  He177  10.002   .     S
Ce138  H176   10.004   .     S
S139   H248   10.005   .     S
S139   Li142   9.994   .     S
H140   S247   10.005   .     S
H140   B144    9.999   .     S
He141  Be386  10.008   .     S
He141  He321   9.986   1_554 S
Li142  Li349  10.006   .     S
Li142  Be251  10.004   .     S
Be143  He384  10.008   .     S
Be143  Be386   9.994   .     S
Be143  Li250  10.004   .     S
B144   Er245   9.993   .     S
V145   Er362  10.004   1_554 S
V145   V361   10.004   1_554 S
V145   Ti433  10.001   .     S
Er146  V361   10.004   1_554 S
Er146  B369    9.993   1_554 S
Ce147  S148   10.001   .     S
S148   H365   10.005   1_554 S
S148   Li151   9.994   .     S
H149   S364   10.005   1_554 S
H149   B153    9.999   .     S
He150  Be341  10.008   .     S
He150  He276   9.986   .     S
Li151  Li250  10.006   .     S
Li151  Be368  10.004   1_554 S
Be152  He339  10.008   .     S
Be152  Be341   9.994   .     S
Be152  Li367  10.004   1_554 S
B153   Er362   9.993   1_554 S
V154   Er371  10.004   .     S
V154   V370   10.004   .     S
V154   Ti434  10.001   .     S
Er155  V370   10.004   .     S
Er155  B378    9.993   .     S
Ce156  S157   10.001   .     S
S157   H374   10.005   .     S
S157   Li160   9.994   .     S
H158   S373   10.005   .     S
H158   B162    9.999   .     S
He159  Be332  10.008   .     S
He159  He285   9.986   1_655 S
Li160  Li241  10.006   .     S
Li160  Be377  10.004   .     S
Be161  He330  10.008   .     S
Be161  Be332   9.994   .     S
Be161  Li376  10.004   .     S
B162   Er371   9.993   .     S
V163   Er398  10.004   1_556 S
V163   V397   10.004   1_556 S
V163   Ti437  10.001   .     S
Er164  V397   10.004   1_556 S
Er164  B405    9.993   1_556 S
Ce165  S166   10.001   .     S
S166   H401   10.005   1_556 S
S166   Li169   9.994   .     S
H167   S400   10.005   1_556 S
H167   B171    9.999   .     S
He168  Be359  10.008   .     S
He168  He222   9.986   .     S
Li169  Li268  10.006   .     S
Li169  Be404  10.004   1_556 S
Be170  He357  10.008   .     S
Be170  Be359   9.994   .     S
Be170  Li403  10.004   1_556 S
B171   Er398   9.993   1_556 S
V172   Er407  10.004   .     S
V172   V406   10.004   .     S
V172   Ti438  10.001   .     S
Er173  V406   10.004   .     S
Er173  B414    9.993   .     S
Ce174  S175   10.001   .     S
S175   H410   10.005   .     S
S175   Li178   9.994   .     S
H176   S409   10.005   .     S
H176   B180    9.999   .     S
He177  Be350  10.008   .     S
He177  He231   9.986   1_455 S
Li178  Li259  10.006   .     S
Li178  Be413  10.004   .     S
Be179  He348  10.008   .     S
Be179  Be350   9.994   .     S
Be179  Li412  10.004   .     S
B180   Er407   9.993   .     S
V181   Er380  10.004   1_556 S
V181   V379   10.004   1_556 S
V181   Ti439  10.001   .     S
Er182  V379   10.004   1_556 S
Er182  B387    9.993   1_556 S
Ce183  S184   10.001   .     S
S184   H383   10.005   1_556 S
S184   Li187   9.994   .     S
H185   S382   10.005   1_556 S
H185   B189    9.999   .     S
He186  Be323  10.008   .     S
He186  He240   9.986   .     S
Li187  Li286  10.006   .     S
Li187  Be386  10.004   1_556 S
Be188  He321  10.008   .     S
Be188  Be323   9.994   .     S
Be188  Li385  10.004   1_556 S
B189   Er380   9.993   1_556 S
V190   Er389  10.004   .     S
V190   V388   10.004   .     S
V190   Ti440  10.001   .     S
Er191  V388   10.004   .     S
Er191  B396    9.993   .     S
Ce192  S193   10.001   .     S
S193   H392   10.005   .     S
S193   Li196   9.994   .     S
H194   S391   10.005   .     S
H194   B198    9.999   .     S
He195  Be314  10.008   .     S
He195  He249   9.986   1_655 S
Li196  Li277  10.006   .     S
Li196  Be395  10.004   .     S
Be197  He312  10.008   .     S
Be197  Be314   9.994   .     S
Be197  Li394  10.004   .     S
B198   Er389   9.993   .     S
V199   Er416  10.004   1_554 S
V199   V415   10.004   1_554 S
V199   Ti435  10.001   .     S
Er200  V415   10.004   1_554 S
Er200  B423    9.993   1_554 S
Ce201  S202   10.001   .     S
S202   H419   10.005   1_554 S
S202   Li205   9.994   .     S
H203   S418   10.005   1_554 S
H203   B207    9.999   .     S
He204  Be305  10.008   .     S
He204  He258   9.986   .     S
Li205  Li232  10.006   .     S
Li205  Be422  10.004   1_554 S
Be206  He303  10.008   .     S
Be206  Be305   9.994   .     S
Be206  Li421  10.004   1_554 S
B207   Er416   9.993   1_554 S
V208   Er425  10.004   .     S
V208   V424   10.004   .     S
V208   Ti436  10.001   .     S
Er209  V424   10.004   .     S
Er209  B432    9.993   .     S
Ce210  S211   10.001   .     S
S211   H428   10.005   .     S
S211   Li214   9.994   .     S
H212   S427   10.005   .     S
H212   B216    9.999   .     S
He213  Be296  10.008   .     S
He213  He267   9.986   1_455 S
Li214  Li223  10.006   .     S
Li214  Be431  10.004   .     S
Be215  He294  10.008   .     S
Be215  Be296   9.994   .     S
Be215  Li430  10.004   .     S
B216   Er425   9.993   .     S
V217   Er92   10.004   1_545 S
V217   V91    10.004   1_545 S
V217   Ti441  10.001   .     S
Er218  V91    10.004   1_545 S
Er218  B297    9.990   .     S
Er218  B99     9.993   1_545 S
Ce219  S220   10.001   .     S
Ce219  He294  10.002   .     S
Ce219  H293   10.004   .     S
S220   H95    10.005   1_545 S
S220   Li223   9.994   .     S
H221   S94    10.005   1_545 S
H221   B225    9.999   .     S
H221   Ce363  10.004   .     S
He222  Ce363  10.002   .     S
Li223  Be98   10.004   1_545 S
Be224  Li97   10.004   1_545 S
B225   Er362   9.990   .     S
B225   Er92    9.993   1_545 S
V226   Ti442  10.001   .     S
Er227  B306    9.990   .     S
Ce228  S229   10.001   .     S
Ce228  He303  10.002   .     S
Ce228  H302   10.004   .     S
S229   Li232   9.994   .     S
H230   B234    9.999   .     S
H230   Ce372  10.004   .     S
He231  Ce372  10.002   .     S
He231  He177   9.986   1_655 S
B234   Er371   9.990   .     S
V235   Er128  10.004   1_565 S
V235   V127   10.004   1_565 S
V235   Ti443  10.001   .     S
Er236  V127   10.004   1_565 S
Er236  B333    9.990   .     S
Er236  B135    9.993   1_565 S
Ce237  S238   10.001   .     S
Ce237  He330  10.002   .     S
Ce237  H329   10.004   .     S
S238   H131   10.005   1_565 S
S238   Li241   9.994   .     S
H239   S130   10.005   1_565 S
H239   B243    9.999   .     S
H239   Ce417  10.004   .     S
He240  Ce417  10.002   .     S
Li241  Be134  10.004   1_565 S
Be242  Li133  10.004   1_565 S
B243   Er416   9.990   .     S
B243   Er128   9.993   1_565 S
V244   Ti444  10.001   .     S
Er245  B342    9.990   .     S
Ce246  S247   10.001   .     S
Ce246  He339  10.002   .     S
Ce246  H338   10.004   .     S
S247   Li250   9.994   .     S
H248   B252    9.999   .     S
H248   Ce426  10.004   .     S
He249  Ce426  10.002   .     S
He249  He195   9.986   1_455 S
B252   Er425   9.990   .     S
V253   Er74   10.004   1_565 S
V253   V73    10.004   1_565 S
V253   Ti445  10.001   .     S
Er254  V73    10.004   1_565 S
Er254  B351    9.990   .     S
Er254  B81     9.993   1_565 S
Ce255  S256   10.001   .     S
Ce255  He348  10.002   .     S
Ce255  H347   10.004   .     S
S256   H77    10.005   1_565 S
S256   Li259   9.994   .     S
H257   S76    10.005   1_565 S
H257   B261    9.999   .     S
H257   Ce381  10.004   .     S
He258  Ce381  10.002   .     S
Li259  Be80   10.004   1_565 S
Be260  Li79   10.004   1_565 S
B261   Er380   9.990   .     S
B261   Er74    9.993   1_565 S
V262   Ti446  10.001   .     S
Er263  B360    9.990   .     S
Ce264  S265   10.001   .     S
Ce264  He357  10.002   .     S
Ce264  H356   10.004   .     S
S265   Li268   9.994   .     S
H266   B270    9.999   .     S
H266   Ce390  10.004   .     S
He267  Ce390  10.002   .     S
He267  He213   9.986   1_655 S
B270   Er389   9.990   .     S
V271   Er110  10.004   1_545 S
V271   V109   10.004   1_545 S
V271   Ti447  10.001   .     S
Er272  V109   10.004   1_545 S
Er272  B315    9.990   .     S
Er272  B117    9.993   1_545 S
Ce273  S274   10.001   .     S
Ce273  He312  10.002   .     S
Ce273  H311   10.004   .     S
S274   H113   10.005   1_545 S
S274   Li277   9.994   .     S
H275   S112   10.005   1_545 S
H275   B279    9.999   .     S
H275   Ce399  10.004   .     S
He276  Ce399  10.002   .     S
Li277  Be116  10.004   1_545 S
Be278  Li115  10.004   1_545 S
B279   Er398   9.990   .     S
B279   Er110   9.993   1_545 S
V280   Ti448  10.001   .     S
Er281  B324    9.990   .     S
Ce282  S283   10.001   .     S
Ce282  He321  10.002   .     S
Ce282  H320   10.004   .     S
S283   Li286   9.994   .     S
H284   B288    9.999   .     S
H284   Ce408  10.004   .     S
He285  Ce408  10.002   .     S
He285  He159   9.986   1_455 S
B288   Er407   9.990   .     S
V289   Er38   10.004   1_455 S
V289   V37    10.004   1_455 S
V289   Ti441  10.001   .     S
Er290  V37    10.004   1_455 S
Er290  B369    9.990   .     S
Er290  B45     9.993   1_455 S
Ce291  S292   10.001   .     S
Ce291  He366  10.002   .     S
Ce291  H365   10.004   .     S
S292   H41    10.005   1_455 S
S292   Li295   9.994   .     S
H293   S40    10.005   1_455 S
H293   B297    9.999   .     S
Li295  Be44   10.004   1_455 S
Be296  Li43   10.004   1_455 S
B297   Er38    9.993   1_455 S
V298   Ti442  10.001   .     S
Er299  B378    9.990   .     S
Ce300  S301   10.001   .     S
Ce300  He375  10.002   .     S
Ce300  H374   10.004   .     S
S301   Li304   9.994   .     S
H302   B306    9.999   .     S
He303  He87    9.986   1_554 S
V307   Er2    10.004   1_655 S
V307   V1     10.004   1_655 S
V307   Ti447  10.001   .     S
Er308  V1     10.004   1_655 S
Er308  B405    9.990   .     S
Er308  B9      9.993   1_655 S
Ce309  S310   10.001   .     S
Ce309  He402  10.002   .     S
Ce309  H401   10.004   .     S
S310   H5     10.005   1_655 S
S310   Li313   9.994   .     S
H311   S4     10.005   1_655 S
H311   B315    9.999   .     S
Li313  Be8    10.004   1_655 S
Be314  Li7    10.004   1_655 S
B315   Er2     9.993   1_655 S
V316   Ti448  10.001   .     S
Er317  B414    9.990   .     S
Ce318  S319   10.001   .     S
Ce318  He411  10.002   .     S
Ce318  H410   10.004   .     S
S319   Li322   9.994   .     S
H320   B324    9.999   .     S
He321  He141   9.986   1_556 S
V325   Er56   10.004   1_655 S
V325   V55    10.004   1_655 S
V325   Ti443  10.001   .     S
Er326  V55    10.004   1_655 S
Er326  B423    9.990   .     S
Er326  B63     9.993   1_655 S
Ce327  S328   10.001   .     S
Ce327  He420  10.002   .     S
Ce327  H419   10.004   .     S
S328   H59    10.005   1_655 S
S328   Li331   9.994   .     S
H329   S58    10.005   1_655 S
H329   B333    9.999   .     S
Li331  Be62   10.004   1_655 S
Be332  Li61   10.004   1_655 S
B333   Er56    9.993   1_655 S
V334   Ti444  10.001   .     S
Er335  B432    9.990   .     S
Ce336  S337   10.001   .     S
Ce336  He429  10.002   .     S
Ce336  H428   10.004   .     S
S337   Li340   9.994   .     S
H338   B342    9.999   .     S
He339  He123   9.986   1_554 S
V343   Er20   10.004   1_455 S
V343   V19    10.004   1_455 S
V343   Ti445  10.001   .     S
Er344  V19    10.004   1_455 S
Er344  B387    9.990   .     S
Er344  B27     9.993   1_455 S
Ce345  S346   10.001   .     S
Ce345  He384  10.002   .     S
Ce345  H383   10.004   .     S
S346   H23    10.005   1_455 S
S346   Li349   9.994   .     S
H347   S22    10.005   1_455 S
H347   B351    9.999   .     S
Li349  Be26   10.004   1_455 S
Be350  Li25   10.004   1_455 S
B351   Er20    9.993   1_455 S
V352   Ti446  10.001   .     S
Er353  B396    9.990   .     S
Ce354  S355   10.001   .     S
Ce354  He393  10.002   .     S
Ce354  H392   10.004   .     S
S355   Li358   9.994   .     S
H356   B360    9.999   .     S
He357  He105   9.986   1_556 S
V361   Er146  10.004   1_556 S
V361   V145   10.004   1_556 S
V361   Ti441  10.001   .     S
Er362  V145   10.004   1_556 S
Er362  B153    9.993   1_556 S
Ce363  S364   10.001   .     S
S364   H149   10.005   1_556 S
S364   Li367   9.994   .     S
H365   S148   10.005   1_556 S
H365   B369    9.999   .     S
Li367  Be152  10.004   1_556 S
Be368  Li151  10.004   1_556 S
B369   Er146   9.993   1_556 S
V370   Ti442  10.001   .     S
Ce372  S373   10.001   .     S
S373   Li376   9.994   .     S
H374   B378    9.999   .     S
He375  He69    9.986   1_565 S
V379   Er182  10.004   1_554 S
V379   V181   10.004   1_554 S
V379   Ti445  10.001   .     S
Er380  V181   10.004   1_554 S
Er380  B189    9.993   1_554 S
Ce381  S382   10.001   .     S
S382   H185   10.005   1_554 S
S382   Li385   9.994   .     S
H383   S184   10.005   1_554 S
H383   B387    9.999   .     S
Li385  Be188  10.004   1_554 S
Be386  Li187  10.004   1_554 S
B387   Er182   9.993   1_554 S
V388   Ti446  10.001   .     S
Ce390  S391   10.001   .     S
S391   Li394   9.994   .     S
H392   B396    9.999   .     S
He393  He15    9.986   1_545 S
V397   Er164  10.004   1_554 S
V397   V163   10.004   1_554 S
V397   Ti447  10.001   .     S
Er398  V163   10.004   1_554 S
Er398  B171    9.993   1_554 S
Ce399  S400   10.001   .     S
S400   H167   10.005   1_554 S
S400   Li403   9.994   .     S
H401   S166   10.005   1_554 S
H401   B405    9.999   .     S
Li403  Be170  10.004   1_554 S
Be404  Li169  10.004   1_554 S
B405   Er164   9.993   1_554 S
V406   Ti448  10.001   .     S
Ce408  S409   10.001   .     S
S409   Li412   9.994   .     S
H410   B414    9.999   .     S
He411  He33    9.986   1_565 S
V415   Er200  10.004   1_556 S
V415   V199   10.004   1_556 S
V415   Ti443  10.001   .     S
Er416  V199   10.004   1_556 S
Er416  B207    9.993   1_556 S
Ce417  S418   10.001   .     S
S418   H203   10.005   1_556 S
S418   Li421   9.994   .     S
H419   S202   10.005   1_556 S
H419   B423    9.999   .     S
Li421  Be206  10.004   1_556 S
Be422  Li205  10.004   1_556 S
B423   Er200   9.993   1_556 S
V424   Ti444  10.001   .     S
Ce426  S427   10.001   .     S
S427   Li430   9.994   .     S
H428   B432    9.999   .     S
He429  He51    9.986   1_545 S
