data_tep
_audit_creation_date              2018-07-19
_audit_creation_method            'Materials Studio'
_symmetry_space_group_name_H-M    'P1'
_symmetry_Int_Tables_number       1
_symmetry_cell_setting            triclinic
loop_
_symmetry_equiv_pos_as_xyz
  x,y,z
_cell_length_a                    116.0130
_cell_length_b                    116.0130
_cell_length_c                    116.0130
_cell_angle_alpha                 90.0000
_cell_angle_beta                  90.0000
_cell_angle_gamma                 90.0000
loop_
_atom_site_label
_atom_site_type_symbol
_atom_site_fract_x
_atom_site_fract_y
_atom_site_fract_z
_atom_site_U_iso_or_equiv
_atom_site_adp_type
_atom_site_occupancy
H1     H     0.19100   0.11940   0.07210   0.00000  Uiso   1.00
Li2    Li    0.18610   0.20040   0.04310   0.00000  Uiso   1.00
Be3    Be    0.11700   0.24490   0.06920   0.00000  Uiso   1.00
C4     C     0.25570   0.24260   0.07120   0.00000  Uiso   1.00
N5     N     0.13200   0.31180   0.12140   0.00000  Uiso   1.00
F6     F     0.32180   0.20450   0.11140   0.00000  Uiso   1.00
Na7    Na    0.09950   0.37850   0.07750   0.00000  Uiso   1.00
Mg8    Mg    0.21780   0.30620   0.11530   0.00000  Uiso   1.00
Si9    Si    0.39680   0.21390   0.07000   0.00000  Uiso   1.00
K10    K     0.42860   0.13460   0.05870   0.00000  Uiso   1.00
Sc11   Sc    0.16130   0.42770   0.04310   0.00000  Uiso   1.00
Cr12   Cr    0.22710   0.37870   0.06970   0.00000  Uiso   1.00
H13    H     0.80900   0.88060   0.07210   0.00000  Uiso   1.00
Li14   Li    0.81390   0.79960   0.04310   0.00000  Uiso   1.00
Be15   Be    0.88300   0.75510   0.06920   0.00000  Uiso   1.00
C16    C     0.74430   0.75740   0.07120   0.00000  Uiso   1.00
N17    N     0.86800   0.68820   0.12140   0.00000  Uiso   1.00
F18    F     0.67820   0.79550   0.11140   0.00000  Uiso   1.00
Na19   Na    0.90050   0.62150   0.07750   0.00000  Uiso   1.00
Mg20   Mg    0.78220   0.69380   0.11530   0.00000  Uiso   1.00
Si21   Si    0.60320   0.78610   0.07000   0.00000  Uiso   1.00
K22    K     0.57140   0.86540   0.05870   0.00000  Uiso   1.00
Sc23   Sc    0.83870   0.57230   0.04310   0.00000  Uiso   1.00
Cr24   Cr    0.77290   0.62130   0.06970   0.00000  Uiso   1.00
H25    H     0.80900   0.11940   0.92790   0.00000  Uiso   1.00
Li26   Li    0.81390   0.20040   0.95690   0.00000  Uiso   1.00
Be27   Be    0.88300   0.24490   0.93080   0.00000  Uiso   1.00
C28    C     0.74430   0.24260   0.92880   0.00000  Uiso   1.00
N29    N     0.86800   0.31180   0.87860   0.00000  Uiso   1.00
F30    F     0.67820   0.20450   0.88860   0.00000  Uiso   1.00
Na31   Na    0.90050   0.37850   0.92250   0.00000  Uiso   1.00
Mg32   Mg    0.78220   0.30620   0.88470   0.00000  Uiso   1.00
Si33   Si    0.60320   0.21390   0.93000   0.00000  Uiso   1.00
K34    K     0.57140   0.13460   0.94130   0.00000  Uiso   1.00
Sc35   Sc    0.83870   0.42770   0.95690   0.00000  Uiso   1.00
Cr36   Cr    0.77290   0.37870   0.93030   0.00000  Uiso   1.00
H37    H     0.19100   0.88060   0.92790   0.00000  Uiso   1.00
Li38   Li    0.18610   0.79960   0.95690   0.00000  Uiso   1.00
Be39   Be    0.11700   0.75510   0.93080   0.00000  Uiso   1.00
C40    C     0.25570   0.75740   0.92880   0.00000  Uiso   1.00
N41    N     0.13200   0.68820   0.87860   0.00000  Uiso   1.00
F42    F     0.32180   0.79550   0.88860   0.00000  Uiso   1.00
Na43   Na    0.09950   0.62150   0.92250   0.00000  Uiso   1.00
Mg44   Mg    0.21780   0.69380   0.88470   0.00000  Uiso   1.00
Si45   Si    0.39680   0.78610   0.93000   0.00000  Uiso   1.00
K46    K     0.42860   0.86540   0.94130   0.00000  Uiso   1.00
Sc47   Sc    0.16130   0.57230   0.95690   0.00000  Uiso   1.00
Cr48   Cr    0.22710   0.62130   0.93030   0.00000  Uiso   1.00
H49    H     0.07210   0.19100   0.11940   0.00000  Uiso   1.00
Li50   Li    0.04310   0.18610   0.20040   0.00000  Uiso   1.00
Be51   Be    0.06920   0.11700   0.24490   0.00000  Uiso   1.00
C52    C     0.07120   0.25570   0.24260   0.00000  Uiso   1.00
N53    N     0.12140   0.13200   0.31180   0.00000  Uiso   1.00
F54    F     0.11140   0.32180   0.20450   0.00000  Uiso   1.00
Na55   Na    0.07750   0.09950   0.37850   0.00000  Uiso   1.00
Mg56   Mg    0.11530   0.21780   0.30620   0.00000  Uiso   1.00
Si57   Si    0.07000   0.39680   0.21390   0.00000  Uiso   1.00
K58    K     0.05870   0.42860   0.13460   0.00000  Uiso   1.00
Sc59   Sc    0.04310   0.16130   0.42770   0.00000  Uiso   1.00
Cr60   Cr    0.06970   0.22710   0.37870   0.00000  Uiso   1.00
H61    H     0.07210   0.80900   0.88060   0.00000  Uiso   1.00
Li62   Li    0.04310   0.81390   0.79960   0.00000  Uiso   1.00
Be63   Be    0.06920   0.88300   0.75510   0.00000  Uiso   1.00
C64    C     0.07120   0.74430   0.75740   0.00000  Uiso   1.00
N65    N     0.12140   0.86800   0.68820   0.00000  Uiso   1.00
F66    F     0.11140   0.67820   0.79550   0.00000  Uiso   1.00
Na67   Na    0.07750   0.90050   0.62150   0.00000  Uiso   1.00
Mg68   Mg    0.11530   0.78220   0.69380   0.00000  Uiso   1.00
Si69   Si    0.07000   0.60320   0.78610   0.00000  Uiso   1.00
K70    K     0.05870   0.57140   0.86540   0.00000  Uiso   1.00
Sc71   Sc    0.04310   0.83870   0.57230   0.00000  Uiso   1.00
Cr72   Cr    0.06970   0.77290   0.62130   0.00000  Uiso   1.00
H73    H     0.92790   0.80900   0.11940   0.00000  Uiso   1.00
Li74   Li    0.95690   0.81390   0.20040   0.00000  Uiso   1.00
Be75   Be    0.93080   0.88300   0.24490   0.00000  Uiso   1.00
C76    C     0.92880   0.74430   0.24260   0.00000  Uiso   1.00
N77    N     0.87860   0.86800   0.31180   0.00000  Uiso   1.00
F78    F     0.88860   0.67820   0.20450   0.00000  Uiso   1.00
Na79   Na    0.92250   0.90050   0.37850   0.00000  Uiso   1.00
Mg80   Mg    0.88470   0.78220   0.30620   0.00000  Uiso   1.00
Si81   Si    0.93000   0.60320   0.21390   0.00000  Uiso   1.00
K82    K     0.94130   0.57140   0.13460   0.00000  Uiso   1.00
Sc83   Sc    0.95690   0.83870   0.42770   0.00000  Uiso   1.00
Cr84   Cr    0.93030   0.77290   0.37870   0.00000  Uiso   1.00
H85    H     0.92790   0.19100   0.88060   0.00000  Uiso   1.00
Li86   Li    0.95690   0.18610   0.79960   0.00000  Uiso   1.00
Be87   Be    0.93080   0.11700   0.75510   0.00000  Uiso   1.00
C88    C     0.92880   0.25570   0.75740   0.00000  Uiso   1.00
N89    N     0.87860   0.13200   0.68820   0.00000  Uiso   1.00
F90    F     0.88860   0.32180   0.79550   0.00000  Uiso   1.00
Na91   Na    0.92250   0.09950   0.62150   0.00000  Uiso   1.00
Mg92   Mg    0.88470   0.21780   0.69380   0.00000  Uiso   1.00
Si93   Si    0.93000   0.39680   0.78610   0.00000  Uiso   1.00
K94    K     0.94130   0.42860   0.86540   0.00000  Uiso   1.00
Sc95   Sc    0.95690   0.16130   0.57230   0.00000  Uiso   1.00
Cr96   Cr    0.93030   0.22710   0.62130   0.00000  Uiso   1.00
H97    H     0.11940   0.07210   0.19100   0.00000  Uiso   1.00
Li98   Li    0.20040   0.04310   0.18610   0.00000  Uiso   1.00
Be99   Be    0.24490   0.06920   0.11700   0.00000  Uiso   1.00
C100   C     0.24260   0.07120   0.25570   0.00000  Uiso   1.00
N101   N     0.31180   0.12140   0.13200   0.00000  Uiso   1.00
F102   F     0.20450   0.11140   0.32180   0.00000  Uiso   1.00
Na103  Na    0.37850   0.07750   0.09950   0.00000  Uiso   1.00
Mg104  Mg    0.30620   0.11530   0.21780   0.00000  Uiso   1.00
Si105  Si    0.21390   0.07000   0.39680   0.00000  Uiso   1.00
K106   K     0.13460   0.05870   0.42860   0.00000  Uiso   1.00
Sc107  Sc    0.42770   0.04310   0.16130   0.00000  Uiso   1.00
Cr108  Cr    0.37870   0.06970   0.22710   0.00000  Uiso   1.00
H109   H     0.88060   0.07210   0.80900   0.00000  Uiso   1.00
Li110  Li    0.79960   0.04310   0.81390   0.00000  Uiso   1.00
Be111  Be    0.75510   0.06920   0.88300   0.00000  Uiso   1.00
C112   C     0.75740   0.07120   0.74430   0.00000  Uiso   1.00
N113   N     0.68820   0.12140   0.86800   0.00000  Uiso   1.00
F114   F     0.79550   0.11140   0.67820   0.00000  Uiso   1.00
Na115  Na    0.62150   0.07750   0.90050   0.00000  Uiso   1.00
Mg116  Mg    0.69380   0.11530   0.78220   0.00000  Uiso   1.00
Si117  Si    0.78610   0.07000   0.60320   0.00000  Uiso   1.00
K118   K     0.86540   0.05870   0.57140   0.00000  Uiso   1.00
Sc119  Sc    0.57230   0.04310   0.83870   0.00000  Uiso   1.00
Cr120  Cr    0.62130   0.06970   0.77290   0.00000  Uiso   1.00
H121   H     0.11940   0.92790   0.80900   0.00000  Uiso   1.00
Li122  Li    0.20040   0.95690   0.81390   0.00000  Uiso   1.00
Be123  Be    0.24490   0.93080   0.88300   0.00000  Uiso   1.00
C124   C     0.24260   0.92880   0.74430   0.00000  Uiso   1.00
N125   N     0.31180   0.87860   0.86800   0.00000  Uiso   1.00
F126   F     0.20450   0.88860   0.67820   0.00000  Uiso   1.00
Na127  Na    0.37850   0.92250   0.90050   0.00000  Uiso   1.00
Mg128  Mg    0.30620   0.88470   0.78220   0.00000  Uiso   1.00
Si129  Si    0.21390   0.93000   0.60320   0.00000  Uiso   1.00
K130   K     0.13460   0.94130   0.57140   0.00000  Uiso   1.00
Sc131  Sc    0.42770   0.95690   0.83870   0.00000  Uiso   1.00
Cr132  Cr    0.37870   0.93030   0.77290   0.00000  Uiso   1.00
H133   H     0.88060   0.92790   0.19100   0.00000  Uiso   1.00
Li134  Li    0.79960   0.95690   0.18610   0.00000  Uiso   1.00
Be135  Be    0.75510   0.93080   0.11700   0.00000  Uiso   1.00
C136   C     0.75740   0.92880   0.25570   0.00000  Uiso   1.00
N137   N     0.68820   0.87860   0.13200   0.00000  Uiso   1.00
F138   F     0.79550   0.88860   0.32180   0.00000  Uiso   1.00
Na139  Na    0.62150   0.92250   0.09950   0.00000  Uiso   1.00
Mg140  Mg    0.69380   0.88470   0.21780   0.00000  Uiso   1.00
Si141  Si    0.78610   0.93000   0.39680   0.00000  Uiso   1.00
K142   K     0.86540   0.94130   0.42860   0.00000  Uiso   1.00
Sc143  Sc    0.57230   0.95690   0.16130   0.00000  Uiso   1.00
Cr144  Cr    0.62130   0.93030   0.22710   0.00000  Uiso   1.00
H145   H     0.61940   0.69100   0.42790   0.00000  Uiso   1.00
Li146  Li    0.70040   0.68610   0.45690   0.00000  Uiso   1.00
Be147  Be    0.74490   0.61700   0.43080   0.00000  Uiso   1.00
C148   C     0.74260   0.75570   0.42880   0.00000  Uiso   1.00
N149   N     0.81180   0.63200   0.37860   0.00000  Uiso   1.00
F150   F     0.70450   0.82180   0.38860   0.00000  Uiso   1.00
Na151  Na    0.87850   0.59950   0.42250   0.00000  Uiso   1.00
Mg152  Mg    0.80620   0.71780   0.38470   0.00000  Uiso   1.00
Si153  Si    0.71390   0.89680   0.43000   0.00000  Uiso   1.00
K154   K     0.63460   0.92860   0.44130   0.00000  Uiso   1.00
Sc155  Sc    0.92770   0.66130   0.45690   0.00000  Uiso   1.00
Cr156  Cr    0.87870   0.72710   0.43030   0.00000  Uiso   1.00
H157   H     0.38060   0.30900   0.42790   0.00000  Uiso   1.00
Li158  Li    0.29960   0.31390   0.45690   0.00000  Uiso   1.00
Be159  Be    0.25510   0.38300   0.43080   0.00000  Uiso   1.00
C160   C     0.25740   0.24430   0.42880   0.00000  Uiso   1.00
N161   N     0.18820   0.36800   0.37860   0.00000  Uiso   1.00
F162   F     0.29550   0.17820   0.38860   0.00000  Uiso   1.00
Na163  Na    0.12150   0.40050   0.42250   0.00000  Uiso   1.00
Mg164  Mg    0.19380   0.28220   0.38470   0.00000  Uiso   1.00
Si165  Si    0.28610   0.10320   0.43000   0.00000  Uiso   1.00
K166   K     0.36540   0.07140   0.44130   0.00000  Uiso   1.00
Sc167  Sc    0.07230   0.33870   0.45690   0.00000  Uiso   1.00
Cr168  Cr    0.12130   0.27290   0.43030   0.00000  Uiso   1.00
H169   H     0.61940   0.30900   0.57210   0.00000  Uiso   1.00
Li170  Li    0.70040   0.31390   0.54310   0.00000  Uiso   1.00
Be171  Be    0.74490   0.38300   0.56920   0.00000  Uiso   1.00
C172   C     0.74260   0.24430   0.57120   0.00000  Uiso   1.00
N173   N     0.81180   0.36800   0.62140   0.00000  Uiso   1.00
F174   F     0.70450   0.17820   0.61140   0.00000  Uiso   1.00
Na175  Na    0.87850   0.40050   0.57750   0.00000  Uiso   1.00
Mg176  Mg    0.80620   0.28220   0.61530   0.00000  Uiso   1.00
Si177  Si    0.71390   0.10320   0.57000   0.00000  Uiso   1.00
K178   K     0.63460   0.07140   0.55870   0.00000  Uiso   1.00
Sc179  Sc    0.92770   0.33870   0.54310   0.00000  Uiso   1.00
Cr180  Cr    0.87870   0.27290   0.56970   0.00000  Uiso   1.00
H181   H     0.38060   0.69100   0.57210   0.00000  Uiso   1.00
Li182  Li    0.29960   0.68610   0.54310   0.00000  Uiso   1.00
Be183  Be    0.25510   0.61700   0.56920   0.00000  Uiso   1.00
C184   C     0.25740   0.75570   0.57120   0.00000  Uiso   1.00
N185   N     0.18820   0.63200   0.62140   0.00000  Uiso   1.00
F186   F     0.29550   0.82180   0.61140   0.00000  Uiso   1.00
Na187  Na    0.12150   0.59950   0.57750   0.00000  Uiso   1.00
Mg188  Mg    0.19380   0.71780   0.61530   0.00000  Uiso   1.00
Si189  Si    0.28610   0.89680   0.57000   0.00000  Uiso   1.00
K190   K     0.36540   0.92860   0.55870   0.00000  Uiso   1.00
Sc191  Sc    0.07230   0.66130   0.54310   0.00000  Uiso   1.00
Cr192  Cr    0.12130   0.72710   0.56970   0.00000  Uiso   1.00
H193   H     0.69100   0.57210   0.38060   0.00000  Uiso   1.00
Li194  Li    0.68610   0.54310   0.29960   0.00000  Uiso   1.00
Be195  Be    0.61700   0.56920   0.25510   0.00000  Uiso   1.00
C196   C     0.75570   0.57120   0.25740   0.00000  Uiso   1.00
N197   N     0.63200   0.62140   0.18820   0.00000  Uiso   1.00
F198   F     0.82180   0.61140   0.29550   0.00000  Uiso   1.00
Na199  Na    0.59950   0.57750   0.12150   0.00000  Uiso   1.00
Mg200  Mg    0.71780   0.61530   0.19380   0.00000  Uiso   1.00
Si201  Si    0.89680   0.57000   0.28610   0.00000  Uiso   1.00
K202   K     0.92860   0.55870   0.36540   0.00000  Uiso   1.00
Sc203  Sc    0.66130   0.54310   0.07230   0.00000  Uiso   1.00
Cr204  Cr    0.72710   0.56970   0.12130   0.00000  Uiso   1.00
H205   H     0.30900   0.57210   0.61940   0.00000  Uiso   1.00
Li206  Li    0.31390   0.54310   0.70040   0.00000  Uiso   1.00
Be207  Be    0.38300   0.56920   0.74490   0.00000  Uiso   1.00
C208   C     0.24430   0.57120   0.74260   0.00000  Uiso   1.00
N209   N     0.36800   0.62140   0.81180   0.00000  Uiso   1.00
F210   F     0.17820   0.61140   0.70450   0.00000  Uiso   1.00
Na211  Na    0.40050   0.57750   0.87850   0.00000  Uiso   1.00
Mg212  Mg    0.28220   0.61530   0.80620   0.00000  Uiso   1.00
Si213  Si    0.10320   0.57000   0.71390   0.00000  Uiso   1.00
K214   K     0.07140   0.55870   0.63460   0.00000  Uiso   1.00
Sc215  Sc    0.33870   0.54310   0.92770   0.00000  Uiso   1.00
Cr216  Cr    0.27290   0.56970   0.87870   0.00000  Uiso   1.00
H217   H     0.30900   0.42790   0.38060   0.00000  Uiso   1.00
Li218  Li    0.31390   0.45690   0.29960   0.00000  Uiso   1.00
Be219  Be    0.38300   0.43080   0.25510   0.00000  Uiso   1.00
C220   C     0.24430   0.42880   0.25740   0.00000  Uiso   1.00
N221   N     0.36800   0.37860   0.18820   0.00000  Uiso   1.00
F222   F     0.17820   0.38860   0.29550   0.00000  Uiso   1.00
Na223  Na    0.40050   0.42250   0.12150   0.00000  Uiso   1.00
Mg224  Mg    0.28220   0.38470   0.19380   0.00000  Uiso   1.00
Si225  Si    0.10320   0.43000   0.28610   0.00000  Uiso   1.00
K226   K     0.07140   0.44130   0.36540   0.00000  Uiso   1.00
Sc227  Sc    0.33870   0.45690   0.07230   0.00000  Uiso   1.00
Cr228  Cr    0.27290   0.43030   0.12130   0.00000  Uiso   1.00
H229   H     0.69100   0.42790   0.61940   0.00000  Uiso   1.00
Li230  Li    0.68610   0.45690   0.70040   0.00000  Uiso   1.00
Be231  Be    0.61700   0.43080   0.74490   0.00000  Uiso   1.00
C232   C     0.75570   0.42880   0.74260   0.00000  Uiso   1.00
N233   N     0.63200   0.37860   0.81180   0.00000  Uiso   1.00
F234   F     0.82180   0.38860   0.70450   0.00000  Uiso   1.00
Na235  Na    0.59950   0.42250   0.87850   0.00000  Uiso   1.00
Mg236  Mg    0.71780   0.38470   0.80620   0.00000  Uiso   1.00
Si237  Si    0.89680   0.43000   0.71390   0.00000  Uiso   1.00
K238   K     0.92860   0.44130   0.63460   0.00000  Uiso   1.00
Sc239  Sc    0.66130   0.45690   0.92770   0.00000  Uiso   1.00
Cr240  Cr    0.72710   0.43030   0.87870   0.00000  Uiso   1.00
H241   H     0.57210   0.61940   0.30900   0.00000  Uiso   1.00
Li242  Li    0.54310   0.70040   0.31390   0.00000  Uiso   1.00
Be243  Be    0.56920   0.74490   0.38300   0.00000  Uiso   1.00
C244   C     0.57120   0.74260   0.24430   0.00000  Uiso   1.00
N245   N     0.62140   0.81180   0.36800   0.00000  Uiso   1.00
F246   F     0.61140   0.70450   0.17820   0.00000  Uiso   1.00
Na247  Na    0.57750   0.87850   0.40050   0.00000  Uiso   1.00
Mg248  Mg    0.61530   0.80620   0.28220   0.00000  Uiso   1.00
Si249  Si    0.57000   0.71390   0.10320   0.00000  Uiso   1.00
K250   K     0.55870   0.63460   0.07140   0.00000  Uiso   1.00
Sc251  Sc    0.54310   0.92770   0.33870   0.00000  Uiso   1.00
Cr252  Cr    0.56970   0.87870   0.27290   0.00000  Uiso   1.00
H253   H     0.57210   0.38060   0.69100   0.00000  Uiso   1.00
Li254  Li    0.54310   0.29960   0.68610   0.00000  Uiso   1.00
Be255  Be    0.56920   0.25510   0.61700   0.00000  Uiso   1.00
C256   C     0.57120   0.25740   0.75570   0.00000  Uiso   1.00
N257   N     0.62140   0.18820   0.63200   0.00000  Uiso   1.00
F258   F     0.61140   0.29550   0.82180   0.00000  Uiso   1.00
Na259  Na    0.57750   0.12150   0.59950   0.00000  Uiso   1.00
Mg260  Mg    0.61530   0.19380   0.71780   0.00000  Uiso   1.00
Si261  Si    0.57000   0.28610   0.89680   0.00000  Uiso   1.00
K262   K     0.55870   0.36540   0.92860   0.00000  Uiso   1.00
Sc263  Sc    0.54310   0.07230   0.66130   0.00000  Uiso   1.00
Cr264  Cr    0.56970   0.12130   0.72710   0.00000  Uiso   1.00
H265   H     0.42790   0.61940   0.69100   0.00000  Uiso   1.00
Li266  Li    0.45690   0.70040   0.68610   0.00000  Uiso   1.00
Be267  Be    0.43080   0.74490   0.61700   0.00000  Uiso   1.00
C268   C     0.42880   0.74260   0.75570   0.00000  Uiso   1.00
N269   N     0.37860   0.81180   0.63200   0.00000  Uiso   1.00
F270   F     0.38860   0.70450   0.82180   0.00000  Uiso   1.00
Na271  Na    0.42250   0.87850   0.59950   0.00000  Uiso   1.00
Mg272  Mg    0.38470   0.80620   0.71780   0.00000  Uiso   1.00
Si273  Si    0.43000   0.71390   0.89680   0.00000  Uiso   1.00
K274   K     0.44130   0.63460   0.92860   0.00000  Uiso   1.00
Sc275  Sc    0.45690   0.92770   0.66130   0.00000  Uiso   1.00
Cr276  Cr    0.43030   0.87870   0.72710   0.00000  Uiso   1.00
H277   H     0.42790   0.38060   0.30900   0.00000  Uiso   1.00
Li278  Li    0.45690   0.29960   0.31390   0.00000  Uiso   1.00
Be279  Be    0.43080   0.25510   0.38300   0.00000  Uiso   1.00
C280   C     0.42880   0.25740   0.24430   0.00000  Uiso   1.00
N281   N     0.37860   0.18820   0.36800   0.00000  Uiso   1.00
F282   F     0.38860   0.29550   0.17820   0.00000  Uiso   1.00
Na283  Na    0.42250   0.12150   0.40050   0.00000  Uiso   1.00
Mg284  Mg    0.38470   0.19380   0.28220   0.00000  Uiso   1.00
Si285  Si    0.43000   0.28610   0.10320   0.00000  Uiso   1.00
K286   K     0.44130   0.36540   0.07140   0.00000  Uiso   1.00
Sc287  Sc    0.45690   0.07230   0.33870   0.00000  Uiso   1.00
Cr288  Cr    0.43030   0.12130   0.27290   0.00000  Uiso   1.00
H289   H     0.80900   0.88060   0.92790   0.00000  Uiso   1.00
Li290  Li    0.81390   0.79960   0.95690   0.00000  Uiso   1.00
Be291  Be    0.88300   0.75510   0.93080   0.00000  Uiso   1.00
C292   C     0.74430   0.75740   0.92880   0.00000  Uiso   1.00
N293   N     0.86800   0.68820   0.87860   0.00000  Uiso   1.00
F294   F     0.67820   0.79550   0.88860   0.00000  Uiso   1.00
Na295  Na    0.90050   0.62150   0.92250   0.00000  Uiso   1.00
Mg296  Mg    0.78220   0.69380   0.88470   0.00000  Uiso   1.00
Si297  Si    0.60320   0.78610   0.93000   0.00000  Uiso   1.00
K298   K     0.57140   0.86540   0.94130   0.00000  Uiso   1.00
Sc299  Sc    0.83870   0.57230   0.95690   0.00000  Uiso   1.00
Cr300  Cr    0.77290   0.62130   0.93030   0.00000  Uiso   1.00
H301   H     0.19100   0.11940   0.92790   0.00000  Uiso   1.00
Li302  Li    0.18610   0.20040   0.95690   0.00000  Uiso   1.00
Be303  Be    0.11700   0.24490   0.93080   0.00000  Uiso   1.00
C304   C     0.25570   0.24260   0.92880   0.00000  Uiso   1.00
N305   N     0.13200   0.31180   0.87860   0.00000  Uiso   1.00
F306   F     0.32180   0.20450   0.88860   0.00000  Uiso   1.00
Na307  Na    0.09950   0.37850   0.92250   0.00000  Uiso   1.00
Mg308  Mg    0.21780   0.30620   0.88470   0.00000  Uiso   1.00
Si309  Si    0.39680   0.21390   0.93000   0.00000  Uiso   1.00
K310   K     0.42860   0.13460   0.94130   0.00000  Uiso   1.00
Sc311  Sc    0.16130   0.42770   0.95690   0.00000  Uiso   1.00
Cr312  Cr    0.22710   0.37870   0.93030   0.00000  Uiso   1.00
H313   H     0.19100   0.88060   0.07210   0.00000  Uiso   1.00
Li314  Li    0.18610   0.79960   0.04310   0.00000  Uiso   1.00
Be315  Be    0.11700   0.75510   0.06920   0.00000  Uiso   1.00
C316   C     0.25570   0.75740   0.07120   0.00000  Uiso   1.00
N317   N     0.13200   0.68820   0.12140   0.00000  Uiso   1.00
F318   F     0.32180   0.79550   0.11140   0.00000  Uiso   1.00
Na319  Na    0.09950   0.62150   0.07750   0.00000  Uiso   1.00
Mg320  Mg    0.21780   0.69380   0.11530   0.00000  Uiso   1.00
Si321  Si    0.39680   0.78610   0.07000   0.00000  Uiso   1.00
K322   K     0.42860   0.86540   0.05870   0.00000  Uiso   1.00
Sc323  Sc    0.16130   0.57230   0.04310   0.00000  Uiso   1.00
Cr324  Cr    0.22710   0.62130   0.06970   0.00000  Uiso   1.00
H325   H     0.80900   0.11940   0.07210   0.00000  Uiso   1.00
Li326  Li    0.81390   0.20040   0.04310   0.00000  Uiso   1.00
Be327  Be    0.88300   0.24490   0.06920   0.00000  Uiso   1.00
C328   C     0.74430   0.24260   0.07120   0.00000  Uiso   1.00
N329   N     0.86800   0.31180   0.12140   0.00000  Uiso   1.00
F330   F     0.67820   0.20450   0.11140   0.00000  Uiso   1.00
Na331  Na    0.90050   0.37850   0.07750   0.00000  Uiso   1.00
Mg332  Mg    0.78220   0.30620   0.11530   0.00000  Uiso   1.00
Si333  Si    0.60320   0.21390   0.07000   0.00000  Uiso   1.00
K334   K     0.57140   0.13460   0.05870   0.00000  Uiso   1.00
Sc335  Sc    0.83870   0.42770   0.04310   0.00000  Uiso   1.00
Cr336  Cr    0.77290   0.37870   0.06970   0.00000  Uiso   1.00
H337   H     0.92790   0.80900   0.88060   0.00000  Uiso   1.00
Li338  Li    0.95690   0.81390   0.79960   0.00000  Uiso   1.00
Be339  Be    0.93080   0.88300   0.75510   0.00000  Uiso   1.00
C340   C     0.92880   0.74430   0.75740   0.00000  Uiso   1.00
N341   N     0.87860   0.86800   0.68820   0.00000  Uiso   1.00
F342   F     0.88860   0.67820   0.79550   0.00000  Uiso   1.00
Na343  Na    0.92250   0.90050   0.62150   0.00000  Uiso   1.00
Mg344  Mg    0.88470   0.78220   0.69380   0.00000  Uiso   1.00
Si345  Si    0.93000   0.60320   0.78610   0.00000  Uiso   1.00
K346   K     0.94130   0.57140   0.86540   0.00000  Uiso   1.00
Sc347  Sc    0.95690   0.83870   0.57230   0.00000  Uiso   1.00
Cr348  Cr    0.93030   0.77290   0.62130   0.00000  Uiso   1.00
H349   H     0.92790   0.19100   0.11940   0.00000  Uiso   1.00
Li350  Li    0.95690   0.18610   0.20040   0.00000  Uiso   1.00
Be351  Be    0.93080   0.11700   0.24490   0.00000  Uiso   1.00
C352   C     0.92880   0.25570   0.24260   0.00000  Uiso   1.00
N353   N     0.87860   0.13200   0.31180   0.00000  Uiso   1.00
F354   F     0.88860   0.32180   0.20450   0.00000  Uiso   1.00
Na355  Na    0.92250   0.09950   0.37850   0.00000  Uiso   1.00
Mg356  Mg    0.88470   0.21780   0.30620   0.00000  Uiso   1.00
Si357  Si    0.93000   0.39680   0.21390   0.00000  Uiso   1.00
K358   K     0.94130   0.42860   0.13460   0.00000  Uiso   1.00
Sc359  Sc    0.95690   0.16130   0.42770   0.00000  Uiso   1.00
Cr360  Cr    0.93030   0.22710   0.37870   0.00000  Uiso   1.00
H361   H     0.07210   0.19100   0.88060   0.00000  Uiso   1.00
Li362  Li    0.04310   0.18610   0.79960   0.00000  Uiso   1.00
Be363  Be    0.06920   0.11700   0.75510   0.00000  Uiso   1.00
C364   C     0.07120   0.25570   0.75740   0.00000  Uiso   1.00
N365   N     0.12140   0.13200   0.68820   0.00000  Uiso   1.00
F366   F     0.11140   0.32180   0.79550   0.00000  Uiso   1.00
Na367  Na    0.07750   0.09950   0.62150   0.00000  Uiso   1.00
Mg368  Mg    0.11530   0.21780   0.69380   0.00000  Uiso   1.00
Si369  Si    0.07000   0.39680   0.78610   0.00000  Uiso   1.00
K370   K     0.05870   0.42860   0.86540   0.00000  Uiso   1.00
Sc371  Sc    0.04310   0.16130   0.57230   0.00000  Uiso   1.00
Cr372  Cr    0.06970   0.22710   0.62130   0.00000  Uiso   1.00
H373   H     0.07210   0.80900   0.11940   0.00000  Uiso   1.00
Li374  Li    0.04310   0.81390   0.20040   0.00000  Uiso   1.00
Be375  Be    0.06920   0.88300   0.24490   0.00000  Uiso   1.00
C376   C     0.07120   0.74430   0.24260   0.00000  Uiso   1.00
N377   N     0.12140   0.86800   0.31180   0.00000  Uiso   1.00
F378   F     0.11140   0.67820   0.20450   0.00000  Uiso   1.00
Na379  Na    0.07750   0.90050   0.37850   0.00000  Uiso   1.00
Mg380  Mg    0.11530   0.78220   0.30620   0.00000  Uiso   1.00
Si381  Si    0.07000   0.60320   0.21390   0.00000  Uiso   1.00
K382   K     0.05870   0.57140   0.13460   0.00000  Uiso   1.00
Sc383  Sc    0.04310   0.83870   0.42770   0.00000  Uiso   1.00
Cr384  Cr    0.06970   0.77290   0.37870   0.00000  Uiso   1.00
H385   H     0.88060   0.92790   0.80900   0.00000  Uiso   1.00
Li386  Li    0.79960   0.95690   0.81390   0.00000  Uiso   1.00
Be387  Be    0.75510   0.93080   0.88300   0.00000  Uiso   1.00
C388   C     0.75740   0.92880   0.74430   0.00000  Uiso   1.00
N389   N     0.68820   0.87860   0.86800   0.00000  Uiso   1.00
F390   F     0.79550   0.88860   0.67820   0.00000  Uiso   1.00
Na391  Na    0.62150   0.92250   0.90050   0.00000  Uiso   1.00
Mg392  Mg    0.69380   0.88470   0.78220   0.00000  Uiso   1.00
Si393  Si    0.78610   0.93000   0.60320   0.00000  Uiso   1.00
K394   K     0.86540   0.94130   0.57140   0.00000  Uiso   1.00
Sc395  Sc    0.57230   0.95690   0.83870   0.00000  Uiso   1.00
Cr396  Cr    0.62130   0.93030   0.77290   0.00000  Uiso   1.00
H397   H     0.11940   0.92790   0.19100   0.00000  Uiso   1.00
Li398  Li    0.20040   0.95690   0.18610   0.00000  Uiso   1.00
Be399  Be    0.24490   0.93080   0.11700   0.00000  Uiso   1.00
C400   C     0.24260   0.92880   0.25570   0.00000  Uiso   1.00
N401   N     0.31180   0.87860   0.13200   0.00000  Uiso   1.00
F402   F     0.20450   0.88860   0.32180   0.00000  Uiso   1.00
Na403  Na    0.37850   0.92250   0.09950   0.00000  Uiso   1.00
Mg404  Mg    0.30620   0.88470   0.21780   0.00000  Uiso   1.00
Si405  Si    0.21390   0.93000   0.39680   0.00000  Uiso   1.00
K406   K     0.13460   0.94130   0.42860   0.00000  Uiso   1.00
Sc407  Sc    0.42770   0.95690   0.16130   0.00000  Uiso   1.00
Cr408  Cr    0.37870   0.93030   0.22710   0.00000  Uiso   1.00
H409   H     0.88060   0.07210   0.19100   0.00000  Uiso   1.00
Li410  Li    0.79960   0.04310   0.18610   0.00000  Uiso   1.00
Be411  Be    0.75510   0.06920   0.11700   0.00000  Uiso   1.00
C412   C     0.75740   0.07120   0.25570   0.00000  Uiso   1.00
N413   N     0.68820   0.12140   0.13200   0.00000  Uiso   1.00
F414   F     0.79550   0.11140   0.32180   0.00000  Uiso   1.00
Na415  Na    0.62150   0.07750   0.09950   0.00000  Uiso   1.00
Mg416  Mg    0.69380   0.11530   0.21780   0.00000  Uiso   1.00
Si417  Si    0.78610   0.07000   0.39680   0.00000  Uiso   1.00
K418   K     0.86540   0.05870   0.42860   0.00000  Uiso   1.00
Sc419  Sc    0.57230   0.04310   0.16130   0.00000  Uiso   1.00
Cr420  Cr    0.62130   0.06970   0.22710   0.00000  Uiso   1.00
H421   H     0.11940   0.07210   0.80900   0.00000  Uiso   1.00
Li422  Li    0.20040   0.04310   0.81390   0.00000  Uiso   1.00
Be423  Be    0.24490   0.06920   0.88300   0.00000  Uiso   1.00
C424   C     0.24260   0.07120   0.74430   0.00000  Uiso   1.00
N425   N     0.31180   0.12140   0.86800   0.00000  Uiso   1.00
F426   F     0.20450   0.11140   0.67820   0.00000  Uiso   1.00
Na427  Na    0.37850   0.07750   0.90050   0.00000  Uiso   1.00
Mg428  Mg    0.30620   0.11530   0.78220   0.00000  Uiso   1.00
Si429  Si    0.21390   0.07000   0.60320   0.00000  Uiso   1.00
K430   K     0.13460   0.05870   0.57140   0.00000  Uiso   1.00
Sc431  Sc    0.42770   0.04310   0.83870   0.00000  Uiso   1.00
Cr432  Cr    0.37870   0.06970   0.77290   0.00000  Uiso   1.00
H433   H     0.38060   0.30900   0.57210   0.00000  Uiso   1.00
Li434  Li    0.29960   0.31390   0.54310   0.00000  Uiso   1.00
Be435  Be    0.25510   0.38300   0.56920   0.00000  Uiso   1.00
C436   C     0.25740   0.24430   0.57120   0.00000  Uiso   1.00
N437   N     0.18820   0.36800   0.62140   0.00000  Uiso   1.00
F438   F     0.29550   0.17820   0.61140   0.00000  Uiso   1.00
Na439  Na    0.12150   0.40050   0.57750   0.00000  Uiso   1.00
Mg440  Mg    0.19380   0.28220   0.61530   0.00000  Uiso   1.00
Si441  Si    0.28610   0.10320   0.57000   0.00000  Uiso   1.00
K442   K     0.36540   0.07140   0.55870   0.00000  Uiso   1.00
Sc443  Sc    0.07230   0.33870   0.54310   0.00000  Uiso   1.00
Cr444  Cr    0.12130   0.27290   0.56970   0.00000  Uiso   1.00
H445   H     0.61940   0.69100   0.57210   0.00000  Uiso   1.00
Li446  Li    0.70040   0.68610   0.54310   0.00000  Uiso   1.00
Be447  Be    0.74490   0.61700   0.56920   0.00000  Uiso   1.00
C448   C     0.74260   0.75570   0.57120   0.00000  Uiso   1.00
N449   N     0.81180   0.63200   0.62140   0.00000  Uiso   1.00
F450   F     0.70450   0.82180   0.61140   0.00000  Uiso   1.00
Na451  Na    0.87850   0.59950   0.57750   0.00000  Uiso   1.00
Mg452  Mg    0.80620   0.71780   0.61530   0.00000  Uiso   1.00
Si453  Si    0.71390   0.89680   0.57000   0.00000  Uiso   1.00
K454   K     0.63460   0.92860   0.55870   0.00000  Uiso   1.00
Sc455  Sc    0.92770   0.66130   0.54310   0.00000  Uiso   1.00
Cr456  Cr    0.87870   0.72710   0.56970   0.00000  Uiso   1.00
H457   H     0.38060   0.69100   0.42790   0.00000  Uiso   1.00
Li458  Li    0.29960   0.68610   0.45690   0.00000  Uiso   1.00
Be459  Be    0.25510   0.61700   0.43080   0.00000  Uiso   1.00
C460   C     0.25740   0.75570   0.42880   0.00000  Uiso   1.00
N461   N     0.18820   0.63200   0.37860   0.00000  Uiso   1.00
F462   F     0.29550   0.82180   0.38860   0.00000  Uiso   1.00
Na463  Na    0.12150   0.59950   0.42250   0.00000  Uiso   1.00
Mg464  Mg    0.19380   0.71780   0.38470   0.00000  Uiso   1.00
Si465  Si    0.28610   0.89680   0.43000   0.00000  Uiso   1.00
K466   K     0.36540   0.92860   0.44130   0.00000  Uiso   1.00
Sc467  Sc    0.07230   0.66130   0.45690   0.00000  Uiso   1.00
Cr468  Cr    0.12130   0.72710   0.43030   0.00000  Uiso   1.00
H469   H     0.61940   0.30900   0.42790   0.00000  Uiso   1.00
Li470  Li    0.70040   0.31390   0.45690   0.00000  Uiso   1.00
Be471  Be    0.74490   0.38300   0.43080   0.00000  Uiso   1.00
C472   C     0.74260   0.24430   0.42880   0.00000  Uiso   1.00
N473   N     0.81180   0.36800   0.37860   0.00000  Uiso   1.00
F474   F     0.70450   0.17820   0.38860   0.00000  Uiso   1.00
Na475  Na    0.87850   0.40050   0.42250   0.00000  Uiso   1.00
Mg476  Mg    0.80620   0.28220   0.38470   0.00000  Uiso   1.00
Si477  Si    0.71390   0.10320   0.43000   0.00000  Uiso   1.00
K478   K     0.63460   0.07140   0.44130   0.00000  Uiso   1.00
Sc479  Sc    0.92770   0.33870   0.45690   0.00000  Uiso   1.00
Cr480  Cr    0.87870   0.27290   0.43030   0.00000  Uiso   1.00
H481   H     0.30900   0.42790   0.61940   0.00000  Uiso   1.00
Li482  Li    0.31390   0.45690   0.70040   0.00000  Uiso   1.00
Be483  Be    0.38300   0.43080   0.74490   0.00000  Uiso   1.00
C484   C     0.24430   0.42880   0.74260   0.00000  Uiso   1.00
N485   N     0.36800   0.37860   0.81180   0.00000  Uiso   1.00
F486   F     0.17820   0.38860   0.70450   0.00000  Uiso   1.00
Na487  Na    0.40050   0.42250   0.87850   0.00000  Uiso   1.00
Mg488  Mg    0.28220   0.38470   0.80620   0.00000  Uiso   1.00
Si489  Si    0.10320   0.43000   0.71390   0.00000  Uiso   1.00
K490   K     0.07140   0.44130   0.63460   0.00000  Uiso   1.00
Sc491  Sc    0.33870   0.45690   0.92770   0.00000  Uiso   1.00
Cr492  Cr    0.27290   0.43030   0.87870   0.00000  Uiso   1.00
H493   H     0.69100   0.42790   0.38060   0.00000  Uiso   1.00
Li494  Li    0.68610   0.45690   0.29960   0.00000  Uiso   1.00
Be495  Be    0.61700   0.43080   0.25510   0.00000  Uiso   1.00
C496   C     0.75570   0.42880   0.25740   0.00000  Uiso   1.00
N497   N     0.63200   0.37860   0.18820   0.00000  Uiso   1.00
F498   F     0.82180   0.38860   0.29550   0.00000  Uiso   1.00
Na499  Na    0.59950   0.42250   0.12150   0.00000  Uiso   1.00
Mg500  Mg    0.71780   0.38470   0.19380   0.00000  Uiso   1.00
Si501  Si    0.89680   0.43000   0.28610   0.00000  Uiso   1.00
K502   K     0.92860   0.44130   0.36540   0.00000  Uiso   1.00
Sc503  Sc    0.66130   0.45690   0.07230   0.00000  Uiso   1.00
Cr504  Cr    0.72710   0.43030   0.12130   0.00000  Uiso   1.00
H505   H     0.69100   0.57210   0.61940   0.00000  Uiso   1.00
Li506  Li    0.68610   0.54310   0.70040   0.00000  Uiso   1.00
Be507  Be    0.61700   0.56920   0.74490   0.00000  Uiso   1.00
C508   C     0.75570   0.57120   0.74260   0.00000  Uiso   1.00
N509   N     0.63200   0.62140   0.81180   0.00000  Uiso   1.00
F510   F     0.82180   0.61140   0.70450   0.00000  Uiso   1.00
Na511  Na    0.59950   0.57750   0.87850   0.00000  Uiso   1.00
Mg512  Mg    0.71780   0.61530   0.80620   0.00000  Uiso   1.00
Si513  Si    0.89680   0.57000   0.71390   0.00000  Uiso   1.00
K514   K     0.92860   0.55870   0.63460   0.00000  Uiso   1.00
Sc515  Sc    0.66130   0.54310   0.92770   0.00000  Uiso   1.00
Cr516  Cr    0.72710   0.56970   0.87870   0.00000  Uiso   1.00
H517   H     0.30900   0.57210   0.38060   0.00000  Uiso   1.00
Li518  Li    0.31390   0.54310   0.29960   0.00000  Uiso   1.00
Be519  Be    0.38300   0.56920   0.25510   0.00000  Uiso   1.00
C520   C     0.24430   0.57120   0.25740   0.00000  Uiso   1.00
N521   N     0.36800   0.62140   0.18820   0.00000  Uiso   1.00
F522   F     0.17820   0.61140   0.29550   0.00000  Uiso   1.00
Na523  Na    0.40050   0.57750   0.12150   0.00000  Uiso   1.00
Mg524  Mg    0.28220   0.61530   0.19380   0.00000  Uiso   1.00
Si525  Si    0.10320   0.57000   0.28610   0.00000  Uiso   1.00
K526   K     0.07140   0.55870   0.36540   0.00000  Uiso   1.00
Sc527  Sc    0.33870   0.54310   0.07230   0.00000  Uiso   1.00
Cr528  Cr    0.27290   0.56970   0.12130   0.00000  Uiso   1.00
H529   H     0.42790   0.38060   0.69100   0.00000  Uiso   1.00
Li530  Li    0.45690   0.29960   0.68610   0.00000  Uiso   1.00
Be531  Be    0.43080   0.25510   0.61700   0.00000  Uiso   1.00
C532   C     0.42880   0.25740   0.75570   0.00000  Uiso   1.00
N533   N     0.37860   0.18820   0.63200   0.00000  Uiso   1.00
F534   F     0.38860   0.29550   0.82180   0.00000  Uiso   1.00
Na535  Na    0.42250   0.12150   0.59950   0.00000  Uiso   1.00
Mg536  Mg    0.38470   0.19380   0.71780   0.00000  Uiso   1.00
Si537  Si    0.43000   0.28610   0.89680   0.00000  Uiso   1.00
K538   K     0.44130   0.36540   0.92860   0.00000  Uiso   1.00
Sc539  Sc    0.45690   0.07230   0.66130   0.00000  Uiso   1.00
Cr540  Cr    0.43030   0.12130   0.72710   0.00000  Uiso   1.00
H541   H     0.42790   0.61940   0.30900   0.00000  Uiso   1.00
Li542  Li    0.45690   0.70040   0.31390   0.00000  Uiso   1.00
Be543  Be    0.43080   0.74490   0.38300   0.00000  Uiso   1.00
C544   C     0.42880   0.74260   0.24430   0.00000  Uiso   1.00
N545   N     0.37860   0.81180   0.36800   0.00000  Uiso   1.00
F546   F     0.38860   0.70450   0.17820   0.00000  Uiso   1.00
Na547  Na    0.42250   0.87850   0.40050   0.00000  Uiso   1.00
Mg548  Mg    0.38470   0.80620   0.28220   0.00000  Uiso   1.00
Si549  Si    0.43000   0.71390   0.10320   0.00000  Uiso   1.00
K550   K     0.44130   0.63460   0.07140   0.00000  Uiso   1.00
Sc551  Sc    0.45690   0.92770   0.33870   0.00000  Uiso   1.00
Cr552  Cr    0.43030   0.87870   0.27290   0.00000  Uiso   1.00
H553   H     0.57210   0.38060   0.30900   0.00000  Uiso   1.00
Li554  Li    0.54310   0.29960   0.31390   0.00000  Uiso   1.00
Be555  Be    0.56920   0.25510   0.38300   0.00000  Uiso   1.00
C556   C     0.57120   0.25740   0.24430   0.00000  Uiso   1.00
N557   N     0.62140   0.18820   0.36800   0.00000  Uiso   1.00
F558   F     0.61140   0.29550   0.17820   0.00000  Uiso   1.00
Na559  Na    0.57750   0.12150   0.40050   0.00000  Uiso   1.00
Mg560  Mg    0.61530   0.19380   0.28220   0.00000  Uiso   1.00
Si561  Si    0.57000   0.28610   0.10320   0.00000  Uiso   1.00
K562   K     0.55870   0.36540   0.07140   0.00000  Uiso   1.00
Sc563  Sc    0.54310   0.07230   0.33870   0.00000  Uiso   1.00
Cr564  Cr    0.56970   0.12130   0.27290   0.00000  Uiso   1.00
H565   H     0.57210   0.61940   0.69100   0.00000  Uiso   1.00
Li566  Li    0.54310   0.70040   0.68610   0.00000  Uiso   1.00
Be567  Be    0.56920   0.74490   0.61700   0.00000  Uiso   1.00
C568   C     0.57120   0.74260   0.75570   0.00000  Uiso   1.00
N569   N     0.62140   0.81180   0.63200   0.00000  Uiso   1.00
F570   F     0.61140   0.70450   0.82180   0.00000  Uiso   1.00
Na571  Na    0.57750   0.87850   0.59950   0.00000  Uiso   1.00
Mg572  Mg    0.61530   0.80620   0.71780   0.00000  Uiso   1.00
Si573  Si    0.57000   0.71390   0.89680   0.00000  Uiso   1.00
K574   K     0.55870   0.63460   0.92860   0.00000  Uiso   1.00
Sc575  Sc    0.54310   0.92770   0.66130   0.00000  Uiso   1.00
Cr576  Cr    0.56970   0.87870   0.72710   0.00000  Uiso   1.00
V577   V     0.06830   0.06830   0.06830   0.00000  Uiso   1.00
Ti578  Ti    0.11810   0.11810   0.11810   0.00000  Uiso   1.00
V579   V     0.93170   0.93170   0.06830   0.00000  Uiso   1.00
Ti580  Ti    0.88190   0.88190   0.11810   0.00000  Uiso   1.00
V581   V     0.93170   0.06830   0.93170   0.00000  Uiso   1.00
Ti582  Ti    0.88190   0.11810   0.88190   0.00000  Uiso   1.00
V583   V     0.06830   0.93170   0.93170   0.00000  Uiso   1.00
Ti584  Ti    0.11810   0.88190   0.88190   0.00000  Uiso   1.00
V585   V     0.56830   0.56830   0.43170   0.00000  Uiso   1.00
Ti586  Ti    0.61810   0.61810   0.38190   0.00000  Uiso   1.00
V587   V     0.43170   0.43170   0.43170   0.00000  Uiso   1.00
Ti588  Ti    0.38190   0.38190   0.38190   0.00000  Uiso   1.00
V589   V     0.56830   0.43170   0.56830   0.00000  Uiso   1.00
Ti590  Ti    0.61810   0.38190   0.61810   0.00000  Uiso   1.00
V591   V     0.43170   0.56830   0.56830   0.00000  Uiso   1.00
Ti592  Ti    0.38190   0.61810   0.61810   0.00000  Uiso   1.00
V593   V     0.93170   0.93170   0.93170   0.00000  Uiso   1.00
Ti594  Ti    0.88190   0.88190   0.88190   0.00000  Uiso   1.00
V595   V     0.06830   0.06830   0.93170   0.00000  Uiso   1.00
Ti596  Ti    0.11810   0.11810   0.88190   0.00000  Uiso   1.00
V597   V     0.06830   0.93170   0.06830   0.00000  Uiso   1.00
Ti598  Ti    0.11810   0.88190   0.11810   0.00000  Uiso   1.00
V599   V     0.93170   0.06830   0.06830   0.00000  Uiso   1.00
Ti600  Ti    0.88190   0.11810   0.11810   0.00000  Uiso   1.00
V601   V     0.43170   0.43170   0.56830   0.00000  Uiso   1.00
Ti602  Ti    0.38190   0.38190   0.61810   0.00000  Uiso   1.00
V603   V     0.56830   0.56830   0.56830   0.00000  Uiso   1.00
Ti604  Ti    0.61810   0.61810   0.61810   0.00000  Uiso   1.00
V605   V     0.43170   0.56830   0.43170   0.00000  Uiso   1.00
Ti606  Ti    0.38190   0.61810   0.38190   0.00000  Uiso   1.00
V607   V     0.56830   0.43170   0.43170   0.00000  Uiso   1.00
Ti608  Ti    0.61810   0.38190   0.38190   0.00000  Uiso   1.00
Er609  Er   -0.00000   0.11440   0.04310   0.00000  Uiso   1.00
Ce610  Ce   -0.00000   0.19550   0.07240   0.00000  Uiso   1.00
He611  He   -0.00000   0.07820   0.27850   0.00000  Uiso   1.00
B612   B    -0.00000   0.06490   0.36370   0.00000  Uiso   1.00
Ne613  Ne   -0.00000   0.29190   0.27510   0.00000  Uiso   1.00
Al614  Al   -0.00000   0.45690   0.07810   0.00000  Uiso   1.00
Ar615  Ar   -0.00000   0.37670   0.26000   0.00000  Uiso   1.00
Ca616  Ca   -0.00000   0.27410   0.35940   0.00000  Uiso   1.00
Mn617  Mn   -0.00000   0.34370   0.41020   0.00000  Uiso   1.00
Fe618  Fe   -0.00000   0.39830   0.34350   0.00000  Uiso   1.00
Er619  Er    0.00000   0.88560   0.04310   0.00000  Uiso   1.00
Ce620  Ce    0.00000   0.80450   0.07240   0.00000  Uiso   1.00
He621  He    0.00000   0.92180   0.27850   0.00000  Uiso   1.00
B622   B     0.00000   0.93510   0.36370   0.00000  Uiso   1.00
Ne623  Ne    0.00000   0.70810   0.27510   0.00000  Uiso   1.00
Al624  Al    0.00000   0.54310   0.07810   0.00000  Uiso   1.00
Ar625  Ar    0.00000   0.62330   0.26000   0.00000  Uiso   1.00
Ca626  Ca    0.00000   0.72590   0.35940   0.00000  Uiso   1.00
Mn627  Mn    0.00000   0.65630   0.41020   0.00000  Uiso   1.00
Fe628  Fe    0.00000   0.60170   0.34350   0.00000  Uiso   1.00
Er629  Er    0.00000   0.11440   0.95690   0.00000  Uiso   1.00
Ce630  Ce    0.00000   0.19550   0.92760   0.00000  Uiso   1.00
He631  He    0.00000   0.07820   0.72150   0.00000  Uiso   1.00
B632   B     0.00000   0.06490   0.63630   0.00000  Uiso   1.00
Ne633  Ne    0.00000   0.29190   0.72490   0.00000  Uiso   1.00
Al634  Al    0.00000   0.45690   0.92190   0.00000  Uiso   1.00
Ar635  Ar    0.00000   0.37670   0.74000   0.00000  Uiso   1.00
Ca636  Ca    0.00000   0.27410   0.64060   0.00000  Uiso   1.00
Mn637  Mn    0.00000   0.34370   0.58980   0.00000  Uiso   1.00
Fe638  Fe    0.00000   0.39830   0.65650   0.00000  Uiso   1.00
Er639  Er   -0.00000   0.88560   0.95690   0.00000  Uiso   1.00
Ce640  Ce   -0.00000   0.80450   0.92760   0.00000  Uiso   1.00
He641  He   -0.00000   0.92180   0.72150   0.00000  Uiso   1.00
B642   B    -0.00000   0.93510   0.63630   0.00000  Uiso   1.00
Ne643  Ne   -0.00000   0.70810   0.72490   0.00000  Uiso   1.00
Al644  Al   -0.00000   0.54310   0.92190   0.00000  Uiso   1.00
Ar645  Ar   -0.00000   0.62330   0.74000   0.00000  Uiso   1.00
Ca646  Ca   -0.00000   0.72590   0.64060   0.00000  Uiso   1.00
Mn647  Mn   -0.00000   0.65630   0.58980   0.00000  Uiso   1.00
Fe648  Fe   -0.00000   0.60170   0.65650   0.00000  Uiso   1.00
Er649  Er    0.04310  -0.00000   0.11440   0.00000  Uiso   1.00
Ce650  Ce    0.07240  -0.00000   0.19550   0.00000  Uiso   1.00
He651  He    0.27850  -0.00000   0.07820   0.00000  Uiso   1.00
B652   B     0.36370  -0.00000   0.06490   0.00000  Uiso   1.00
Ne653  Ne    0.27510  -0.00000   0.29190   0.00000  Uiso   1.00
Al654  Al    0.07810  -0.00000   0.45690   0.00000  Uiso   1.00
Ar655  Ar    0.26000  -0.00000   0.37670   0.00000  Uiso   1.00
Ca656  Ca    0.35940  -0.00000   0.27410   0.00000  Uiso   1.00
Mn657  Mn    0.41020  -0.00000   0.34370   0.00000  Uiso   1.00
Fe658  Fe    0.34350  -0.00000   0.39830   0.00000  Uiso   1.00
Er659  Er    0.04310   0.00000   0.88560   0.00000  Uiso   1.00
Ce660  Ce    0.07240   0.00000   0.80450   0.00000  Uiso   1.00
He661  He    0.27850   0.00000   0.92180   0.00000  Uiso   1.00
B662   B     0.36370   0.00000   0.93510   0.00000  Uiso   1.00
Ne663  Ne    0.27510   0.00000   0.70810   0.00000  Uiso   1.00
Al664  Al    0.07810   0.00000   0.54310   0.00000  Uiso   1.00
Ar665  Ar    0.26000   0.00000   0.62330   0.00000  Uiso   1.00
Ca666  Ca    0.35940   0.00000   0.72590   0.00000  Uiso   1.00
Mn667  Mn    0.41020   0.00000   0.65630   0.00000  Uiso   1.00
Fe668  Fe    0.34350   0.00000   0.60170   0.00000  Uiso   1.00
Er669  Er    0.95690   0.00000   0.11440   0.00000  Uiso   1.00
Ce670  Ce    0.92760   0.00000   0.19550   0.00000  Uiso   1.00
He671  He    0.72150   0.00000   0.07820   0.00000  Uiso   1.00
B672   B     0.63630   0.00000   0.06490   0.00000  Uiso   1.00
Ne673  Ne    0.72490   0.00000   0.29190   0.00000  Uiso   1.00
Al674  Al    0.92190   0.00000   0.45690   0.00000  Uiso   1.00
Ar675  Ar    0.74000   0.00000   0.37670   0.00000  Uiso   1.00
Ca676  Ca    0.64060   0.00000   0.27410   0.00000  Uiso   1.00
Mn677  Mn    0.58980   0.00000   0.34370   0.00000  Uiso   1.00
Fe678  Fe    0.65650   0.00000   0.39830   0.00000  Uiso   1.00
Er679  Er    0.95690  -0.00000   0.88560   0.00000  Uiso   1.00
Ce680  Ce    0.92760  -0.00000   0.80450   0.00000  Uiso   1.00
He681  He    0.72150  -0.00000   0.92180   0.00000  Uiso   1.00
B682   B     0.63630  -0.00000   0.93510   0.00000  Uiso   1.00
Ne683  Ne    0.72490  -0.00000   0.70810   0.00000  Uiso   1.00
Al684  Al    0.92190  -0.00000   0.54310   0.00000  Uiso   1.00
Ar685  Ar    0.74000  -0.00000   0.62330   0.00000  Uiso   1.00
Ca686  Ca    0.64060  -0.00000   0.72590   0.00000  Uiso   1.00
Mn687  Mn    0.58980  -0.00000   0.65630   0.00000  Uiso   1.00
Fe688  Fe    0.65650  -0.00000   0.60170   0.00000  Uiso   1.00
Er689  Er    0.11440   0.04310  -0.00000   0.00000  Uiso   1.00
Ce690  Ce    0.19550   0.07240  -0.00000   0.00000  Uiso   1.00
He691  He    0.07820   0.27850  -0.00000   0.00000  Uiso   1.00
B692   B     0.06490   0.36370  -0.00000   0.00000  Uiso   1.00
Ne693  Ne    0.29190   0.27510  -0.00000   0.00000  Uiso   1.00
Al694  Al    0.45690   0.07810  -0.00000   0.00000  Uiso   1.00
Ar695  Ar    0.37670   0.26000  -0.00000   0.00000  Uiso   1.00
Ca696  Ca    0.27410   0.35940  -0.00000   0.00000  Uiso   1.00
Mn697  Mn    0.34370   0.41020  -0.00000   0.00000  Uiso   1.00
Fe698  Fe    0.39830   0.34350  -0.00000   0.00000  Uiso   1.00
Er699  Er    0.88560   0.04310   0.00000   0.00000  Uiso   1.00
Ce700  Ce    0.80450   0.07240   0.00000   0.00000  Uiso   1.00
He701  He    0.92180   0.27850   0.00000   0.00000  Uiso   1.00
B702   B     0.93510   0.36370   0.00000   0.00000  Uiso   1.00
Ne703  Ne    0.70810   0.27510   0.00000   0.00000  Uiso   1.00
Al704  Al    0.54310   0.07810   0.00000   0.00000  Uiso   1.00
Ar705  Ar    0.62330   0.26000   0.00000   0.00000  Uiso   1.00
Ca706  Ca    0.72590   0.35940   0.00000   0.00000  Uiso   1.00
Mn707  Mn    0.65630   0.41020   0.00000   0.00000  Uiso   1.00
Fe708  Fe    0.60170   0.34350   0.00000   0.00000  Uiso   1.00
Er709  Er    0.11440   0.95690   0.00000   0.00000  Uiso   1.00
Ce710  Ce    0.19550   0.92760   0.00000   0.00000  Uiso   1.00
He711  He    0.07820   0.72150   0.00000   0.00000  Uiso   1.00
B712   B     0.06490   0.63630   0.00000   0.00000  Uiso   1.00
Ne713  Ne    0.29190   0.72490   0.00000   0.00000  Uiso   1.00
Al714  Al    0.45690   0.92190   0.00000   0.00000  Uiso   1.00
Ar715  Ar    0.37670   0.74000   0.00000   0.00000  Uiso   1.00
Ca716  Ca    0.27410   0.64060   0.00000   0.00000  Uiso   1.00
Mn717  Mn    0.34370   0.58980   0.00000   0.00000  Uiso   1.00
Fe718  Fe    0.39830   0.65650   0.00000   0.00000  Uiso   1.00
Er719  Er    0.88560   0.95690  -0.00000   0.00000  Uiso   1.00
Ce720  Ce    0.80450   0.92760  -0.00000   0.00000  Uiso   1.00
He721  He    0.92180   0.72150  -0.00000   0.00000  Uiso   1.00
B722   B     0.93510   0.63630  -0.00000   0.00000  Uiso   1.00
Ne723  Ne    0.70810   0.72490  -0.00000   0.00000  Uiso   1.00
Al724  Al    0.54310   0.92190  -0.00000   0.00000  Uiso   1.00
Ar725  Ar    0.62330   0.74000  -0.00000   0.00000  Uiso   1.00
Ca726  Ca    0.72590   0.64060  -0.00000   0.00000  Uiso   1.00
Mn727  Mn    0.65630   0.58980  -0.00000   0.00000  Uiso   1.00
Fe728  Fe    0.60170   0.65650  -0.00000   0.00000  Uiso   1.00
Er729  Er    0.61440   0.50000   0.45690   0.00000  Uiso   1.00
Ce730  Ce    0.69550   0.50000   0.42760   0.00000  Uiso   1.00
He731  He    0.57820   0.50000   0.22150   0.00000  Uiso   1.00
B732   B     0.56490   0.50000   0.13630   0.00000  Uiso   1.00
Ne733  Ne    0.79190   0.50000   0.22490   0.00000  Uiso   1.00
Al734  Al    0.95690   0.50000   0.42190   0.00000  Uiso   1.00
Ar735  Ar    0.87670   0.50000   0.24000   0.00000  Uiso   1.00
Ca736  Ca    0.77410   0.50000   0.14060   0.00000  Uiso   1.00
Mn737  Mn    0.84370   0.50000   0.08980   0.00000  Uiso   1.00
Fe738  Fe    0.89830   0.50000   0.15650   0.00000  Uiso   1.00
Er739  Er    0.38560   0.50000   0.45690   0.00000  Uiso   1.00
Ce740  Ce    0.30450   0.50000   0.42760   0.00000  Uiso   1.00
He741  He    0.42180   0.50000   0.22150   0.00000  Uiso   1.00
B742   B     0.43510   0.50000   0.13630   0.00000  Uiso   1.00
Ne743  Ne    0.20810   0.50000   0.22490   0.00000  Uiso   1.00
Al744  Al    0.04310   0.50000   0.42190   0.00000  Uiso   1.00
Ar745  Ar    0.12330   0.50000   0.24000   0.00000  Uiso   1.00
Ca746  Ca    0.22590   0.50000   0.14060   0.00000  Uiso   1.00
Mn747  Mn    0.15630   0.50000   0.08980   0.00000  Uiso   1.00
Fe748  Fe    0.10170   0.50000   0.15650   0.00000  Uiso   1.00
Er749  Er    0.61440   0.50000   0.54310   0.00000  Uiso   1.00
Ce750  Ce    0.69550   0.50000   0.57240   0.00000  Uiso   1.00
He751  He    0.57820   0.50000   0.77850   0.00000  Uiso   1.00
B752   B     0.56490   0.50000   0.86370   0.00000  Uiso   1.00
Ne753  Ne    0.79190   0.50000   0.77510   0.00000  Uiso   1.00
Al754  Al    0.95690   0.50000   0.57810   0.00000  Uiso   1.00
Ar755  Ar    0.87670   0.50000   0.76000   0.00000  Uiso   1.00
Ca756  Ca    0.77410   0.50000   0.85940   0.00000  Uiso   1.00
Mn757  Mn    0.84370   0.50000   0.91020   0.00000  Uiso   1.00
Fe758  Fe    0.89830   0.50000   0.84350   0.00000  Uiso   1.00
Er759  Er    0.38560   0.50000   0.54310   0.00000  Uiso   1.00
Ce760  Ce    0.30450   0.50000   0.57240   0.00000  Uiso   1.00
He761  He    0.42180   0.50000   0.77850   0.00000  Uiso   1.00
B762   B     0.43510   0.50000   0.86370   0.00000  Uiso   1.00
Ne763  Ne    0.20810   0.50000   0.77510   0.00000  Uiso   1.00
Al764  Al    0.04310   0.50000   0.57810   0.00000  Uiso   1.00
Ar765  Ar    0.12330   0.50000   0.76000   0.00000  Uiso   1.00
Ca766  Ca    0.22590   0.50000   0.85940   0.00000  Uiso   1.00
Mn767  Mn    0.15630   0.50000   0.91020   0.00000  Uiso   1.00
Fe768  Fe    0.10170   0.50000   0.84350   0.00000  Uiso   1.00
Er769  Er    0.50000   0.54310   0.38560   0.00000  Uiso   1.00
Ce770  Ce    0.50000   0.57240   0.30450   0.00000  Uiso   1.00
He771  He    0.50000   0.77850   0.42180   0.00000  Uiso   1.00
B772   B     0.50000   0.86370   0.43510   0.00000  Uiso   1.00
Ne773  Ne    0.50000   0.77510   0.20810   0.00000  Uiso   1.00
Al774  Al    0.50000   0.57810   0.04310   0.00000  Uiso   1.00
Ar775  Ar    0.50000   0.76000   0.12330   0.00000  Uiso   1.00
Ca776  Ca    0.50000   0.85940   0.22590   0.00000  Uiso   1.00
Mn777  Mn    0.50000   0.91020   0.15630   0.00000  Uiso   1.00
Fe778  Fe    0.50000   0.84350   0.10170   0.00000  Uiso   1.00
Er779  Er    0.50000   0.54310   0.61440   0.00000  Uiso   1.00
Ce780  Ce    0.50000   0.57240   0.69550   0.00000  Uiso   1.00
He781  He    0.50000   0.77850   0.57820   0.00000  Uiso   1.00
B782   B     0.50000   0.86370   0.56490   0.00000  Uiso   1.00
Ne783  Ne    0.50000   0.77510   0.79190   0.00000  Uiso   1.00
Al784  Al    0.50000   0.57810   0.95690   0.00000  Uiso   1.00
Ar785  Ar    0.50000   0.76000   0.87670   0.00000  Uiso   1.00
Ca786  Ca    0.50000   0.85940   0.77410   0.00000  Uiso   1.00
Mn787  Mn    0.50000   0.91020   0.84370   0.00000  Uiso   1.00
Fe788  Fe    0.50000   0.84350   0.89830   0.00000  Uiso   1.00
Er789  Er    0.50000   0.45690   0.38560   0.00000  Uiso   1.00
Ce790  Ce    0.50000   0.42760   0.30450   0.00000  Uiso   1.00
He791  He    0.50000   0.22150   0.42180   0.00000  Uiso   1.00
B792   B     0.50000   0.13630   0.43510   0.00000  Uiso   1.00
Ne793  Ne    0.50000   0.22490   0.20810   0.00000  Uiso   1.00
Al794  Al    0.50000   0.42190   0.04310   0.00000  Uiso   1.00
Ar795  Ar    0.50000   0.24000   0.12330   0.00000  Uiso   1.00
Ca796  Ca    0.50000   0.14060   0.22590   0.00000  Uiso   1.00
Mn797  Mn    0.50000   0.08980   0.15630   0.00000  Uiso   1.00
Fe798  Fe    0.50000   0.15650   0.10170   0.00000  Uiso   1.00
Er799  Er    0.50000   0.45690   0.61440   0.00000  Uiso   1.00
Ce800  Ce    0.50000   0.42760   0.69550   0.00000  Uiso   1.00
He801  He    0.50000   0.22150   0.57820   0.00000  Uiso   1.00
B802   B     0.50000   0.13630   0.56490   0.00000  Uiso   1.00
Ne803  Ne    0.50000   0.22490   0.79190   0.00000  Uiso   1.00
Al804  Al    0.50000   0.42190   0.95690   0.00000  Uiso   1.00
Ar805  Ar    0.50000   0.24000   0.87670   0.00000  Uiso   1.00
Ca806  Ca    0.50000   0.14060   0.77410   0.00000  Uiso   1.00
Mn807  Mn    0.50000   0.08980   0.84370   0.00000  Uiso   1.00
Fe808  Fe    0.50000   0.15650   0.89830   0.00000  Uiso   1.00
Er809  Er    0.54310   0.61440   0.50000   0.00000  Uiso   1.00
Ce810  Ce    0.57240   0.69550   0.50000   0.00000  Uiso   1.00
He811  He    0.77850   0.57820   0.50000   0.00000  Uiso   1.00
B812   B     0.86370   0.56490   0.50000   0.00000  Uiso   1.00
Ne813  Ne    0.77510   0.79190   0.50000   0.00000  Uiso   1.00
Al814  Al    0.57810   0.95690   0.50000   0.00000  Uiso   1.00
Ar815  Ar    0.76000   0.87670   0.50000   0.00000  Uiso   1.00
Ca816  Ca    0.85940   0.77410   0.50000   0.00000  Uiso   1.00
Mn817  Mn    0.91020   0.84370   0.50000   0.00000  Uiso   1.00
Fe818  Fe    0.84350   0.89830   0.50000   0.00000  Uiso   1.00
Er819  Er    0.54310   0.38560   0.50000   0.00000  Uiso   1.00
Ce820  Ce    0.57240   0.30450   0.50000   0.00000  Uiso   1.00
He821  He    0.77850   0.42180   0.50000   0.00000  Uiso   1.00
B822   B     0.86370   0.43510   0.50000   0.00000  Uiso   1.00
Ne823  Ne    0.77510   0.20810   0.50000   0.00000  Uiso   1.00
Al824  Al    0.57810   0.04310   0.50000   0.00000  Uiso   1.00
Ar825  Ar    0.76000   0.12330   0.50000   0.00000  Uiso   1.00
Ca826  Ca    0.85940   0.22590   0.50000   0.00000  Uiso   1.00
Mn827  Mn    0.91020   0.15630   0.50000   0.00000  Uiso   1.00
Fe828  Fe    0.84350   0.10170   0.50000   0.00000  Uiso   1.00
Er829  Er    0.45690   0.61440   0.50000   0.00000  Uiso   1.00
Ce830  Ce    0.42760   0.69550   0.50000   0.00000  Uiso   1.00
He831  He    0.22150   0.57820   0.50000   0.00000  Uiso   1.00
B832   B     0.13630   0.56490   0.50000   0.00000  Uiso   1.00
Ne833  Ne    0.22490   0.79190   0.50000   0.00000  Uiso   1.00
Al834  Al    0.42190   0.95690   0.50000   0.00000  Uiso   1.00
Ar835  Ar    0.24000   0.87670   0.50000   0.00000  Uiso   1.00
Ca836  Ca    0.14060   0.77410   0.50000   0.00000  Uiso   1.00
Mn837  Mn    0.08980   0.84370   0.50000   0.00000  Uiso   1.00
Fe838  Fe    0.15650   0.89830   0.50000   0.00000  Uiso   1.00
Er839  Er    0.45690   0.38560   0.50000   0.00000  Uiso   1.00
Ce840  Ce    0.42760   0.30450   0.50000   0.00000  Uiso   1.00
He841  He    0.22150   0.42180   0.50000   0.00000  Uiso   1.00
B842   B     0.13630   0.43510   0.50000   0.00000  Uiso   1.00
Ne843  Ne    0.22490   0.20810   0.50000   0.00000  Uiso   1.00
Al844  Al    0.42190   0.04310   0.50000   0.00000  Uiso   1.00
Ar845  Ar    0.24000   0.12330   0.50000   0.00000  Uiso   1.00
Ca846  Ca    0.14060   0.22590   0.50000   0.00000  Uiso   1.00
Mn847  Mn    0.08980   0.15630   0.50000   0.00000  Uiso   1.00
Fe848  Fe    0.15650   0.10170   0.50000   0.00000  Uiso   1.00
S849   S     0.24230   0.00000   0.00000   0.00000  Uiso   1.00
O850   O     0.42040   0.00000  -0.00000   0.00000  Uiso   1.00
S851   S     0.75770   0.00000  -0.00000   0.00000  Uiso   1.00
O852   O     0.57960   0.00000  -0.00000   0.00000  Uiso   1.00
S853   S     0.00000   0.24230   0.00000   0.00000  Uiso   1.00
O854   O     0.00000   0.42040  -0.00000   0.00000  Uiso   1.00
S855   S     0.00000   0.75770   0.00000   0.00000  Uiso   1.00
O856   O     0.00000   0.57960  -0.00000   0.00000  Uiso   1.00
S857   S     0.00000   0.00000   0.24230   0.00000  Uiso   1.00
O858   O     0.00000   0.00000   0.42040   0.00000  Uiso   1.00
S859   S     0.00000   0.00000   0.75770   0.00000  Uiso   1.00
O860   O     0.00000   0.00000   0.57960   0.00000  Uiso   1.00
S861   S     0.50000   0.74230   0.50000   0.00000  Uiso   1.00
O862   O     0.50000   0.92040   0.50000   0.00000  Uiso   1.00
S863   S     0.50000   0.25770   0.50000   0.00000  Uiso   1.00
O864   O     0.50000   0.07960   0.50000   0.00000  Uiso   1.00
S865   S     0.74230   0.50000   0.50000   0.00000  Uiso   1.00
O866   O     0.92040   0.50000   0.50000   0.00000  Uiso   1.00
S867   S     0.25770   0.50000   0.50000   0.00000  Uiso   1.00
O868   O     0.07960   0.50000   0.50000   0.00000  Uiso   1.00
S869   S     0.50000   0.50000   0.25770   0.00000  Uiso   1.00
O870   O     0.50000   0.50000   0.07960   0.00000  Uiso   1.00
S871   S     0.50000   0.50000   0.74230   0.00000  Uiso   1.00
O872   O     0.50000   0.50000   0.92040   0.00000  Uiso   1.00
P873   P     0.31570   0.75000   0.18430   0.00000  Uiso   1.00
P874   P     0.68430   0.25000   0.18430   0.00000  Uiso   1.00
P875   P     0.68430   0.75000   0.81570   0.00000  Uiso   1.00
P876   P     0.31570   0.25000   0.81570   0.00000  Uiso   1.00
P877   P     0.18430   0.31570   0.75000   0.00000  Uiso   1.00
P878   P     0.18430   0.68430   0.25000   0.00000  Uiso   1.00
P879   P     0.81570   0.68430   0.75000   0.00000  Uiso   1.00
P880   P     0.81570   0.31570   0.25000   0.00000  Uiso   1.00
P881   P     0.75000   0.18430   0.31570   0.00000  Uiso   1.00
P882   P     0.25000   0.18430   0.68430   0.00000  Uiso   1.00
P883   P     0.75000   0.81570   0.68430   0.00000  Uiso   1.00
P884   P     0.25000   0.81570   0.31570   0.00000  Uiso   1.00
P885   P     0.68430   0.25000   0.81570   0.00000  Uiso   1.00
P886   P     0.31570   0.75000   0.81570   0.00000  Uiso   1.00
P887   P     0.31570   0.25000   0.18430   0.00000  Uiso   1.00
P888   P     0.68430   0.75000   0.18430   0.00000  Uiso   1.00
P889   P     0.81570   0.68430   0.25000   0.00000  Uiso   1.00
P890   P     0.81570   0.31570   0.75000   0.00000  Uiso   1.00
P891   P     0.18430   0.31570   0.25000   0.00000  Uiso   1.00
P892   P     0.18430   0.68430   0.75000   0.00000  Uiso   1.00
P893   P     0.25000   0.81570   0.68430   0.00000  Uiso   1.00
P894   P     0.75000   0.81570   0.31570   0.00000  Uiso   1.00
P895   P     0.25000   0.18430   0.31570   0.00000  Uiso   1.00
P896   P     0.75000   0.18430   0.68430   0.00000  Uiso   1.00
Cl897  Cl    0.19530   0.25000   0.30470   0.00000  Uiso   1.00
Cl898  Cl    0.80470   0.75000   0.30470   0.00000  Uiso   1.00
Cl899  Cl    0.80470   0.25000   0.69530   0.00000  Uiso   1.00
Cl900  Cl    0.19530   0.75000   0.69530   0.00000  Uiso   1.00
Cl901  Cl    0.30470   0.19530   0.25000   0.00000  Uiso   1.00
Cl902  Cl    0.30470   0.80470   0.75000   0.00000  Uiso   1.00
Cl903  Cl    0.69530   0.80470   0.25000   0.00000  Uiso   1.00
Cl904  Cl    0.69530   0.19530   0.75000   0.00000  Uiso   1.00
Cl905  Cl    0.25000   0.30470   0.19530   0.00000  Uiso   1.00
Cl906  Cl    0.75000   0.30470   0.80470   0.00000  Uiso   1.00
Cl907  Cl    0.25000   0.69530   0.80470   0.00000  Uiso   1.00
Cl908  Cl    0.75000   0.69530   0.19530   0.00000  Uiso   1.00
Cl909  Cl    0.80470   0.75000   0.69530   0.00000  Uiso   1.00
Cl910  Cl    0.19530   0.25000   0.69530   0.00000  Uiso   1.00
Cl911  Cl    0.19530   0.75000   0.30470   0.00000  Uiso   1.00
Cl912  Cl    0.80470   0.25000   0.30470   0.00000  Uiso   1.00
Cl913  Cl    0.69530   0.80470   0.75000   0.00000  Uiso   1.00
Cl914  Cl    0.69530   0.19530   0.25000   0.00000  Uiso   1.00
Cl915  Cl    0.30470   0.19530   0.75000   0.00000  Uiso   1.00
Cl916  Cl    0.30470   0.80470   0.25000   0.00000  Uiso   1.00
Cl917  Cl    0.75000   0.69530   0.80470   0.00000  Uiso   1.00
Cl918  Cl    0.25000   0.69530   0.19530   0.00000  Uiso   1.00
Cl919  Cl    0.75000   0.30470   0.19530   0.00000  Uiso   1.00
Cl920  Cl    0.25000   0.30470   0.80470   0.00000  Uiso   1.00
loop_
_geom_bond_atom_site_label_1
_geom_bond_atom_site_label_2
_geom_bond_distance
_geom_bond_site_symmetry_2
_ccdc_geom_bond_type
H1     Ti578  10.001   .     S
H1     Ce690   9.998   .     S
H1     Li2     9.997   .     S
H1     Be99   10.008   .     S
Li2    Li302  10.000   1_554 S
Li2    Be3    10.004   .     S
Li2    C4      9.990   .     S
Be3    He691   9.995   .     S
Be3    H49    10.008   .     S
Be3    N5      9.997   .     S
C4     F6     10.005   .     S
C4     Ne693  10.004   .     S
C4     Mg8     9.997   .     S
N5     F54    10.000   .     S
N5     Na7    10.002   .     S
N5     Mg8    10.000   .     S
F6     N101   10.000   .     S
F6     Si9     9.998   .     S
F6     P887    9.995   .     S
Na7    B692    9.995   .     S
Na7    K58    10.003   .     S
Na7    Sc11    9.995   .     S
Mg8    Cl905  10.006   .     S
Mg8    Cr12    9.995   .     S
Si9    Si285   9.991   .     S
Si9    Ar695   9.999   .     S
Si9    K10     9.998   .     S
K10    Na103  10.003   .     S
K10    Al694  10.006   .     S
K10    Fe798   9.998   .     S
Sc11   Sc311  10.000   1_554 S
Sc11   Mn747  10.002   .     S
Sc11   Cr12   10.006   .     S
Cr12   Ca696  10.006   .     S
Cr12   Cr228   9.995   .     S
H13    Ti580  10.001   .     S
H13    Ce720   9.998   .     S
H13    Li14    9.997   .     S
H13    Be135  10.008   .     S
Li14   Li290  10.000   1_554 S
Li14   Be15   10.004   .     S
Li14   C16     9.990   .     S
Be15   He721   9.995   .     S
Be15   H73    10.008   .     S
Be15   N17     9.997   .     S
C16    F18    10.005   .     S
C16    Ne723  10.004   .     S
C16    Mg20    9.997   .     S
N17    F78    10.000   .     S
N17    Na19   10.002   .     S
N17    Mg20   10.000   .     S
F18    N137   10.000   .     S
F18    Si21    9.998   .     S
F18    P888    9.995   .     S
Na19   B722    9.995   .     S
Na19   K82    10.003   .     S
Na19   Sc23    9.995   .     S
Mg20   Cl908  10.006   .     S
Mg20   Cr24    9.995   .     S
Si21   Si249   9.991   .     S
Si21   Ar725   9.999   .     S
Si21   K22     9.998   .     S
K22    Na139  10.003   .     S
K22    Al724  10.006   .     S
K22    Fe778   9.998   .     S
Sc23   Sc299  10.000   1_554 S
Sc23   Mn737  10.002   .     S
Sc23   Cr24   10.006   .     S
Cr24   Ca726  10.006   .     S
Cr24   Cr204   9.995   .     S
H25    Ti582  10.001   .     S
H25    Ce700   9.998   1_556 S
H25    Li26    9.997   .     S
H25    Be111  10.008   .     S
Li26   Li326  10.000   1_556 S
Li26   Be27   10.004   .     S
Li26   C28     9.990   .     S
Be27   He701   9.995   1_556 S
Be27   H85    10.008   .     S
Be27   N29     9.997   .     S
C28    F30    10.005   .     S
C28    Ne703  10.004   1_556 S
C28    Mg32    9.997   .     S
N29    F90    10.000   .     S
N29    Na31   10.002   .     S
N29    Mg32   10.000   .     S
F30    N113   10.000   .     S
F30    Si33    9.998   .     S
F30    P885    9.995   .     S
Na31   B702    9.995   1_556 S
Na31   K94    10.003   .     S
Na31   Sc35    9.995   .     S
Mg32   Cl906  10.006   .     S
Mg32   Cr36    9.995   .     S
Si33   Si261   9.991   .     S
Si33   Ar705   9.999   1_556 S
Si33   K34     9.998   .     S
K34    Na115  10.003   .     S
K34    Al704  10.006   1_556 S
K34    Fe808   9.998   .     S
Sc35   Sc335  10.000   1_556 S
Sc35   Mn757  10.002   .     S
Sc35   Cr36   10.006   .     S
Cr36   Ca706  10.006   1_556 S
Cr36   Cr240   9.995   .     S
H37    Ti584  10.001   .     S
H37    Ce710   9.998   1_556 S
H37    Li38    9.997   .     S
H37    Be123  10.008   .     S
Li38   Li314  10.000   1_556 S
Li38   Be39   10.004   .     S
Li38   C40     9.990   .     S
Be39   He711   9.995   1_556 S
Be39   H61    10.008   .     S
Be39   N41     9.997   .     S
C40    F42    10.005   .     S
C40    Ne713  10.004   1_556 S
C40    Mg44    9.997   .     S
N41    F66    10.000   .     S
N41    Na43   10.002   .     S
N41    Mg44   10.000   .     S
F42    N125   10.000   .     S
F42    Si45    9.998   .     S
F42    P886    9.995   .     S
Na43   B712    9.995   1_556 S
Na43   K70    10.003   .     S
Na43   Sc47    9.995   .     S
Mg44   Cl907  10.006   .     S
Mg44   Cr48    9.995   .     S
Si45   Si273   9.991   .     S
Si45   Ar715   9.999   1_556 S
Si45   K46     9.998   .     S
K46    Na127  10.003   .     S
K46    Al714  10.006   1_556 S
K46    Fe788   9.998   .     S
Sc47   Sc323  10.000   1_556 S
Sc47   Mn767  10.002   .     S
Sc47   Cr48   10.006   .     S
Cr48   Ca716  10.006   1_556 S
Cr48   Cr216   9.995   .     S
H49    Ti578  10.001   .     S
H49    Ce610   9.998   .     S
H49    Li50    9.997   .     S
Li50   Li350  10.000   1_455 S
Li50   Be51   10.004   .     S
Li50   C52     9.990   .     S
Be51   He611   9.995   .     S
Be51   H97    10.008   .     S
Be51   N53     9.997   .     S
C52    F54    10.005   .     S
C52    Ne613  10.004   .     S
C52    Mg56    9.997   .     S
N53    F102   10.000   .     S
N53    Na55   10.002   .     S
N53    Mg56   10.000   .     S
F54    Si57    9.998   .     S
F54    P891    9.995   .     S
Na55   B612    9.995   .     S
Na55   K106   10.003   .     S
Na55   Sc59    9.995   .     S
Mg56   Cl897  10.006   .     S
Mg56   Cr60    9.995   .     S
Si57   Si225   9.991   .     S
Si57   Ar615   9.999   .     S
Si57   K58     9.998   .     S
K58    Al614  10.006   .     S
K58    Fe748   9.998   .     S
Sc59   Sc359  10.000   1_455 S
Sc59   Mn847  10.002   .     S
Sc59   Cr60   10.006   .     S
Cr60   Ca616  10.006   .     S
Cr60   Cr168   9.995   .     S
H61    Ti584  10.001   .     S
H61    Ce640   9.998   .     S
H61    Li62    9.997   .     S
Li62   Li338  10.000   1_455 S
Li62   Be63   10.004   .     S
Li62   C64     9.990   .     S
Be63   He641   9.995   .     S
Be63   H121   10.008   .     S
Be63   N65     9.997   .     S
C64    F66    10.005   .     S
C64    Ne643  10.004   .     S
C64    Mg68    9.997   .     S
N65    F126   10.000   .     S
N65    Na67   10.002   .     S
N65    Mg68   10.000   .     S
F66    Si69    9.998   .     S
F66    P892    9.995   .     S
Na67   B642    9.995   .     S
Na67   K130   10.003   .     S
Na67   Sc71    9.995   .     S
Mg68   Cl900  10.006   .     S
Mg68   Cr72    9.995   .     S
Si69   Si213   9.991   .     S
Si69   Ar645   9.999   .     S
Si69   K70     9.998   .     S
K70    Al644  10.006   .     S
K70    Fe768   9.998   .     S
Sc71   Sc347  10.000   1_455 S
Sc71   Mn837  10.002   .     S
Sc71   Cr72   10.006   .     S
Cr72   Ca646  10.006   .     S
Cr72   Cr192   9.995   .     S
H73    Ti580  10.001   .     S
H73    Ce620   9.998   1_655 S
H73    Li74    9.997   .     S
Li74   Li374  10.000   1_655 S
Li74   Be75   10.004   .     S
Li74   C76     9.990   .     S
Be75   He621   9.995   1_655 S
Be75   H133   10.008   .     S
Be75   N77     9.997   .     S
C76    F78    10.005   .     S
C76    Ne623  10.004   1_655 S
C76    Mg80    9.997   .     S
N77    F138   10.000   .     S
N77    Na79   10.002   .     S
N77    Mg80   10.000   .     S
F78    Si81    9.998   .     S
F78    P889    9.995   .     S
Na79   B622    9.995   1_655 S
Na79   K142   10.003   .     S
Na79   Sc83    9.995   .     S
Mg80   Cl898  10.006   .     S
Mg80   Cr84    9.995   .     S
Si81   Si201   9.991   .     S
Si81   Ar625   9.999   1_655 S
Si81   K82     9.998   .     S
K82    Al624  10.006   1_655 S
K82    Fe738   9.998   .     S
Sc83   Sc383  10.000   1_655 S
Sc83   Mn817  10.002   .     S
Sc83   Cr84   10.006   .     S
Cr84   Ca626  10.006   1_655 S
Cr84   Cr156   9.995   .     S
H85    Ti582  10.001   .     S
H85    Ce630   9.998   1_655 S
H85    Li86    9.997   .     S
Li86   Li362  10.000   1_655 S
Li86   Be87   10.004   .     S
Li86   C88     9.990   .     S
Be87   He631   9.995   1_655 S
Be87   H109   10.008   .     S
Be87   N89     9.997   .     S
C88    F90    10.005   .     S
C88    Ne633  10.004   1_655 S
C88    Mg92    9.997   .     S
N89    F114   10.000   .     S
N89    Na91   10.002   .     S
N89    Mg92   10.000   .     S
F90    Si93    9.998   .     S
F90    P890    9.995   .     S
Na91   B632    9.995   1_655 S
Na91   K118   10.003   .     S
Na91   Sc95    9.995   .     S
Mg92   Cl899  10.006   .     S
Mg92   Cr96    9.995   .     S
Si93   Si237   9.991   .     S
Si93   Ar635   9.999   1_655 S
Si93   K94     9.998   .     S
K94    Al634  10.006   1_655 S
K94    Fe758   9.998   .     S
Sc95   Sc371  10.000   1_655 S
Sc95   Mn827  10.002   .     S
Sc95   Cr96   10.006   .     S
Cr96   Ca636  10.006   1_655 S
Cr96   Cr180   9.995   .     S
H97    Ti578  10.001   .     S
H97    Ce650   9.998   .     S
H97    Li98    9.997   .     S
Li98   Li398  10.000   1_545 S
Li98   Be99   10.004   .     S
Li98   C100    9.990   .     S
Be99   He651   9.995   .     S
Be99   N101    9.997   .     S
C100   F102   10.005   .     S
C100   Ne653  10.004   .     S
C100   Mg104   9.997   .     S
N101   Na103  10.002   .     S
N101   Mg104  10.000   .     S
F102   Si105   9.998   .     S
F102   P895    9.995   .     S
Na103  B652    9.995   .     S
Na103  Sc107   9.995   .     S
Mg104  Cl901  10.006   .     S
Mg104  Cr108   9.995   .     S
Si105  Si165   9.991   .     S
Si105  Ar655   9.999   .     S
Si105  K106    9.998   .     S
K106   Al654  10.006   .     S
K106   Fe848   9.998   .     S
Sc107  Sc407  10.000   1_545 S
Sc107  Mn797  10.002   .     S
Sc107  Cr108  10.006   .     S
Cr108  Ca656  10.006   .     S
Cr108  Cr288   9.995   .     S
H109   Ti582  10.001   .     S
H109   Ce680   9.998   .     S
H109   Li110   9.997   .     S
Li110  Li386  10.000   1_545 S
Li110  Be111  10.004   .     S
Li110  C112    9.990   .     S
Be111  He681   9.995   .     S
Be111  N113    9.997   .     S
C112   F114   10.005   .     S
C112   Ne683  10.004   .     S
C112   Mg116   9.997   .     S
N113   Na115  10.002   .     S
N113   Mg116  10.000   .     S
F114   Si117   9.998   .     S
F114   P896    9.995   .     S
Na115  B682    9.995   .     S
Na115  Sc119   9.995   .     S
Mg116  Cl904  10.006   .     S
Mg116  Cr120   9.995   .     S
Si117  Si177   9.991   .     S
Si117  Ar685   9.999   .     S
Si117  K118    9.998   .     S
K118   Al684  10.006   .     S
K118   Fe828   9.998   .     S
Sc119  Sc395  10.000   1_545 S
Sc119  Mn807  10.002   .     S
Sc119  Cr120  10.006   .     S
Cr120  Ca686  10.006   .     S
Cr120  Cr264   9.995   .     S
H121   Ti584  10.001   .     S
H121   Ce660   9.998   1_565 S
H121   Li122   9.997   .     S
Li122  Li422  10.000   1_565 S
Li122  Be123  10.004   .     S
Li122  C124    9.990   .     S
Be123  He661   9.995   1_565 S
Be123  N125    9.997   .     S
C124   F126   10.005   .     S
C124   Ne663  10.004   1_565 S
C124   Mg128   9.997   .     S
N125   Na127  10.002   .     S
N125   Mg128  10.000   .     S
F126   Si129   9.998   .     S
F126   P893    9.995   .     S
Na127  B662    9.995   1_565 S
Na127  Sc131   9.995   .     S
Mg128  Cl902  10.006   .     S
Mg128  Cr132   9.995   .     S
Si129  Si189   9.991   .     S
Si129  Ar665   9.999   1_565 S
Si129  K130    9.998   .     S
K130   Al664  10.006   1_565 S
K130   Fe838   9.998   .     S
Sc131  Sc431  10.000   1_565 S
Sc131  Mn787  10.002   .     S
Sc131  Cr132  10.006   .     S
Cr132  Ca666  10.006   1_565 S
Cr132  Cr276   9.995   .     S
H133   Ti580  10.001   .     S
H133   Ce670   9.998   1_565 S
H133   Li134   9.997   .     S
Li134  Li410  10.000   1_565 S
Li134  Be135  10.004   .     S
Li134  C136    9.990   .     S
Be135  He671   9.995   1_565 S
Be135  N137    9.997   .     S
C136   F138   10.005   .     S
C136   Ne673  10.004   1_565 S
C136   Mg140   9.997   .     S
N137   Na139  10.002   .     S
N137   Mg140  10.000   .     S
F138   Si141   9.998   .     S
F138   P894    9.995   .     S
Na139  B672    9.995   1_565 S
Na139  Sc143   9.995   .     S
Mg140  Cl903  10.006   .     S
Mg140  Cr144   9.995   .     S
Si141  Si153   9.991   .     S
Si141  Ar675   9.999   1_565 S
Si141  K142    9.998   .     S
K142   Al674  10.006   1_565 S
K142   Fe818   9.998   .     S
Sc143  Sc419  10.000   1_565 S
Sc143  Mn777  10.002   .     S
Sc143  Cr144  10.006   .     S
Cr144  Ca676  10.006   1_565 S
Cr144  Cr252   9.995   .     S
H145   Ti586  10.001   .     S
H145   Ce810   9.998   .     S
H145   Li146   9.997   .     S
H145   Be243  10.008   .     S
Li146  Li446  10.000   .     S
Li146  Be147  10.004   .     S
Li146  C148    9.990   .     S
Be147  He811   9.995   .     S
Be147  H193   10.008   .     S
Be147  N149    9.997   .     S
C148   F150   10.005   .     S
C148   Ne813  10.004   .     S
C148   Mg152   9.997   .     S
N149   F198   10.000   .     S
N149   Na151  10.002   .     S
N149   Mg152  10.000   .     S
F150   N245   10.000   .     S
F150   Si153   9.998   .     S
F150   P894    9.995   .     S
Na151  B812    9.995   .     S
Na151  K202   10.003   .     S
Na151  Sc155   9.995   .     S
Mg152  Cl898  10.006   .     S
Mg152  Cr156   9.995   .     S
Si153  Ar815   9.999   .     S
Si153  K154    9.998   .     S
K154   Na247  10.003   .     S
K154   Al814  10.006   .     S
K154   Fe678   9.998   1_565 S
Sc155  Sc455  10.000   .     S
Sc155  Mn627  10.002   1_655 S
Sc155  Cr156  10.006   .     S
Cr156  Ca816  10.006   .     S
H157   Ti588  10.001   .     S
H157   Ce840   9.998   .     S
H157   Li158   9.997   .     S
H157   Be279  10.008   .     S
Li158  Li434  10.000   .     S
Li158  Be159  10.004   .     S
Li158  C160    9.990   .     S
Be159  He841   9.995   .     S
Be159  H217   10.008   .     S
Be159  N161    9.997   .     S
C160   F162   10.005   .     S
C160   Ne843  10.004   .     S
C160   Mg164   9.997   .     S
N161   F222   10.000   .     S
N161   Na163  10.002   .     S
N161   Mg164  10.000   .     S
F162   N281   10.000   .     S
F162   Si165   9.998   .     S
F162   P895    9.995   .     S
Na163  B842    9.995   .     S
Na163  K226   10.003   .     S
Na163  Sc167   9.995   .     S
Mg164  Cl897  10.006   .     S
Mg164  Cr168   9.995   .     S
Si165  Ar845   9.999   .     S
Si165  K166    9.998   .     S
K166   Na283  10.003   .     S
K166   Al844  10.006   .     S
K166   Fe658   9.998   .     S
Sc167  Sc443  10.000   .     S
Sc167  Mn617  10.002   .     S
Sc167  Cr168  10.006   .     S
Cr168  Ca846  10.006   .     S
H169   Ti590  10.001   .     S
H169   Ce820   9.998   .     S
H169   Li170   9.997   .     S
H169   Be255  10.008   .     S
Li170  Li470  10.000   .     S
Li170  Be171  10.004   .     S
Li170  C172    9.990   .     S
Be171  He821   9.995   .     S
Be171  H229   10.008   .     S
Be171  N173    9.997   .     S
C172   F174   10.005   .     S
C172   Ne823  10.004   .     S
C172   Mg176   9.997   .     S
N173   F234   10.000   .     S
N173   Na175  10.002   .     S
N173   Mg176  10.000   .     S
F174   N257   10.000   .     S
F174   Si177   9.998   .     S
F174   P896    9.995   .     S
Na175  B822    9.995   .     S
Na175  K238   10.003   .     S
Na175  Sc179   9.995   .     S
Mg176  Cl899  10.006   .     S
Mg176  Cr180   9.995   .     S
Si177  Ar825   9.999   .     S
Si177  K178    9.998   .     S
K178   Na259  10.003   .     S
K178   Al824  10.006   .     S
K178   Fe688   9.998   .     S
Sc179  Sc479  10.000   .     S
Sc179  Mn637  10.002   1_655 S
Sc179  Cr180  10.006   .     S
Cr180  Ca826  10.006   .     S
H181   Ti592  10.001   .     S
H181   Ce830   9.998   .     S
H181   Li182   9.997   .     S
H181   Be267  10.008   .     S
Li182  Li458  10.000   .     S
Li182  Be183  10.004   .     S
Li182  C184    9.990   .     S
Be183  He831   9.995   .     S
Be183  H205   10.008   .     S
Be183  N185    9.997   .     S
C184   F186   10.005   .     S
C184   Ne833  10.004   .     S
C184   Mg188   9.997   .     S
N185   F210   10.000   .     S
N185   Na187  10.002   .     S
N185   Mg188  10.000   .     S
F186   N269   10.000   .     S
F186   Si189   9.998   .     S
F186   P893    9.995   .     S
Na187  B832    9.995   .     S
Na187  K214   10.003   .     S
Na187  Sc191   9.995   .     S
Mg188  Cl900  10.006   .     S
Mg188  Cr192   9.995   .     S
Si189  Ar835   9.999   .     S
Si189  K190    9.998   .     S
K190   Na271  10.003   .     S
K190   Al834  10.006   .     S
K190   Fe668   9.998   1_565 S
Sc191  Sc467  10.000   .     S
Sc191  Mn647  10.002   .     S
Sc191  Cr192  10.006   .     S
Cr192  Ca836  10.006   .     S
H193   Ti586  10.001   .     S
H193   Ce730   9.998   .     S
H193   Li194   9.997   .     S
Li194  Li494  10.000   .     S
Li194  Be195  10.004   .     S
Li194  C196    9.990   .     S
Be195  He731   9.995   .     S
Be195  H241   10.008   .     S
Be195  N197    9.997   .     S
C196   F198   10.005   .     S
C196   Ne733  10.004   .     S
C196   Mg200   9.997   .     S
N197   F246   10.000   .     S
N197   Na199  10.002   .     S
N197   Mg200  10.000   .     S
F198   Si201   9.998   .     S
F198   P889    9.995   .     S
Na199  B732    9.995   .     S
Na199  K250   10.003   .     S
Na199  Sc203   9.995   .     S
Mg200  Cl908  10.006   .     S
Mg200  Cr204   9.995   .     S
Si201  Ar735   9.999   .     S
Si201  K202    9.998   .     S
K202   Al734  10.006   .     S
K202   Fe628   9.998   1_655 S
Sc203  Sc503  10.000   .     S
Sc203  Mn727  10.002   .     S
Sc203  Cr204  10.006   .     S
Cr204  Ca736  10.006   .     S
H205   Ti592  10.001   .     S
H205   Ce760   9.998   .     S
H205   Li206   9.997   .     S
Li206  Li482  10.000   .     S
Li206  Be207  10.004   .     S
Li206  C208    9.990   .     S
Be207  He761   9.995   .     S
Be207  H265   10.008   .     S
Be207  N209    9.997   .     S
C208   F210   10.005   .     S
C208   Ne763  10.004   .     S
C208   Mg212   9.997   .     S
N209   F270   10.000   .     S
N209   Na211  10.002   .     S
N209   Mg212  10.000   .     S
F210   Si213   9.998   .     S
F210   P892    9.995   .     S
Na211  B762    9.995   .     S
Na211  K274   10.003   .     S
Na211  Sc215   9.995   .     S
Mg212  Cl907  10.006   .     S
Mg212  Cr216   9.995   .     S
Si213  Ar765   9.999   .     S
Si213  K214    9.998   .     S
K214   Al764  10.006   .     S
K214   Fe648   9.998   .     S
Sc215  Sc491  10.000   .     S
Sc215  Mn717  10.002   1_556 S
Sc215  Cr216  10.006   .     S
Cr216  Ca766  10.006   .     S
H217   Ti588  10.001   .     S
H217   Ce740   9.998   .     S
H217   Li218   9.997   .     S
Li218  Li518  10.000   .     S
Li218  Be219  10.004   .     S
Li218  C220    9.990   .     S
Be219  He741   9.995   .     S
Be219  H277   10.008   .     S
Be219  N221    9.997   .     S
C220   F222   10.005   .     S
C220   Ne743  10.004   .     S
C220   Mg224   9.997   .     S
N221   F282   10.000   .     S
N221   Na223  10.002   .     S
N221   Mg224  10.000   .     S
F222   Si225   9.998   .     S
F222   P891    9.995   .     S
Na223  B742    9.995   .     S
Na223  K286   10.003   .     S
Na223  Sc227   9.995   .     S
Mg224  Cl905  10.006   .     S
Mg224  Cr228   9.995   .     S
Si225  Ar745   9.999   .     S
Si225  K226    9.998   .     S
K226   Al744  10.006   .     S
K226   Fe618   9.998   .     S
Sc227  Sc527  10.000   .     S
Sc227  Mn697  10.002   .     S
Sc227  Cr228  10.006   .     S
Cr228  Ca746  10.006   .     S
H229   Ti590  10.001   .     S
H229   Ce750   9.998   .     S
H229   Li230   9.997   .     S
Li230  Li506  10.000   .     S
Li230  Be231  10.004   .     S
Li230  C232    9.990   .     S
Be231  He751   9.995   .     S
Be231  H253   10.008   .     S
Be231  N233    9.997   .     S
C232   F234   10.005   .     S
C232   Ne753  10.004   .     S
C232   Mg236   9.997   .     S
N233   F258   10.000   .     S
N233   Na235  10.002   .     S
N233   Mg236  10.000   .     S
F234   Si237   9.998   .     S
F234   P890    9.995   .     S
Na235  B752    9.995   .     S
Na235  K262   10.003   .     S
Na235  Sc239   9.995   .     S
Mg236  Cl906  10.006   .     S
Mg236  Cr240   9.995   .     S
Si237  Ar755   9.999   .     S
Si237  K238    9.998   .     S
K238   Al754  10.006   .     S
K238   Fe638   9.998   1_655 S
Sc239  Sc515  10.000   .     S
Sc239  Mn707  10.002   1_556 S
Sc239  Cr240  10.006   .     S
Cr240  Ca756  10.006   .     S
H241   Ti586  10.001   .     S
H241   Ce770   9.998   .     S
H241   Li242   9.997   .     S
Li242  Li542  10.000   .     S
Li242  Be243  10.004   .     S
Li242  C244    9.990   .     S
Be243  He771   9.995   .     S
Be243  N245    9.997   .     S
C244   F246   10.005   .     S
C244   Ne773  10.004   .     S
C244   Mg248   9.997   .     S
N245   Na247  10.002   .     S
N245   Mg248  10.000   .     S
F246   Si249   9.998   .     S
F246   P888    9.995   .     S
Na247  B772    9.995   .     S
Na247  Sc251   9.995   .     S
Mg248  Cl903  10.006   .     S
Mg248  Cr252   9.995   .     S
Si249  Ar775   9.999   .     S
Si249  K250    9.998   .     S
K250   Al774  10.006   .     S
K250   Fe728   9.998   .     S
Sc251  Sc551  10.000   .     S
Sc251  Mn677  10.002   1_565 S
Sc251  Cr252  10.006   .     S
Cr252  Ca776  10.006   .     S
H253   Ti590  10.001   .     S
H253   Ce800   9.998   .     S
H253   Li254   9.997   .     S
Li254  Li530  10.000   .     S
Li254  Be255  10.004   .     S
Li254  C256    9.990   .     S
Be255  He801   9.995   .     S
Be255  N257    9.997   .     S
C256   F258   10.005   .     S
C256   Ne803  10.004   .     S
C256   Mg260   9.997   .     S
N257   Na259  10.002   .     S
N257   Mg260  10.000   .     S
F258   Si261   9.998   .     S
F258   P885    9.995   .     S
Na259  B802    9.995   .     S
Na259  Sc263   9.995   .     S
Mg260  Cl904  10.006   .     S
Mg260  Cr264   9.995   .     S
Si261  Ar805   9.999   .     S
Si261  K262    9.998   .     S
K262   Al804  10.006   .     S
K262   Fe708   9.998   1_556 S
Sc263  Sc539  10.000   .     S
Sc263  Mn687  10.002   .     S
Sc263  Cr264  10.006   .     S
Cr264  Ca806  10.006   .     S
H265   Ti592  10.001   .     S
H265   Ce780   9.998   .     S
H265   Li266   9.997   .     S
Li266  Li566  10.000   .     S
Li266  Be267  10.004   .     S
Li266  C268    9.990   .     S
Be267  He781   9.995   .     S
Be267  N269    9.997   .     S
C268   F270   10.005   .     S
C268   Ne783  10.004   .     S
C268   Mg272   9.997   .     S
N269   Na271  10.002   .     S
N269   Mg272  10.000   .     S
F270   Si273   9.998   .     S
F270   P886    9.995   .     S
Na271  B782    9.995   .     S
Na271  Sc275   9.995   .     S
Mg272  Cl902  10.006   .     S
Mg272  Cr276   9.995   .     S
Si273  Ar785   9.999   .     S
Si273  K274    9.998   .     S
K274   Al784  10.006   .     S
K274   Fe718   9.998   1_556 S
Sc275  Sc575  10.000   .     S
Sc275  Mn667  10.002   1_565 S
Sc275  Cr276  10.006   .     S
Cr276  Ca786  10.006   .     S
H277   Ti588  10.001   .     S
H277   Ce790   9.998   .     S
H277   Li278   9.997   .     S
Li278  Li554  10.000   .     S
Li278  Be279  10.004   .     S
Li278  C280    9.990   .     S
Be279  He791   9.995   .     S
Be279  N281    9.997   .     S
C280   F282   10.005   .     S
C280   Ne793  10.004   .     S
C280   Mg284   9.997   .     S
N281   Na283  10.002   .     S
N281   Mg284  10.000   .     S
F282   Si285   9.998   .     S
F282   P887    9.995   .     S
Na283  B792    9.995   .     S
Na283  Sc287   9.995   .     S
Mg284  Cl901  10.006   .     S
Mg284  Cr288   9.995   .     S
Si285  Ar795   9.999   .     S
Si285  K286    9.998   .     S
K286   Al794  10.006   .     S
K286   Fe698   9.998   .     S
Sc287  Sc563  10.000   .     S
Sc287  Mn657  10.002   .     S
Sc287  Cr288  10.006   .     S
Cr288  Ca796  10.006   .     S
H289   Ti594  10.001   .     S
H289   Ce720   9.998   1_556 S
H289   Li290   9.997   .     S
H289   Be387  10.008   .     S
Li290  Li14   10.000   1_556 S
Li290  Be291  10.004   .     S
Li290  C292    9.990   .     S
Be291  He721   9.995   1_556 S
Be291  H337   10.008   .     S
Be291  N293    9.997   .     S
C292   F294   10.005   .     S
C292   Ne723  10.004   1_556 S
C292   Mg296   9.997   .     S
N293   F342   10.000   .     S
N293   Na295  10.002   .     S
N293   Mg296  10.000   .     S
F294   N389   10.000   .     S
F294   Si297   9.998   .     S
F294   P875    9.995   .     S
Na295  B722    9.995   1_556 S
Na295  K346   10.003   .     S
Na295  Sc299   9.995   .     S
Mg296  Cl917  10.006   .     S
Mg296  Cr300   9.995   .     S
Si297  Si573   9.991   .     S
Si297  Ar725   9.999   1_556 S
Si297  K298    9.998   .     S
K298   Na391  10.003   .     S
K298   Al724  10.006   1_556 S
K298   Fe788   9.998   .     S
Sc299  Sc23   10.000   1_556 S
Sc299  Mn757  10.002   .     S
Sc299  Cr300  10.006   .     S
Cr300  Ca726  10.006   1_556 S
Cr300  Cr516   9.995   .     S
H301   Ti596  10.001   .     S
H301   Ce690   9.998   1_556 S
H301   Li302   9.997   .     S
H301   Be423  10.008   .     S
Li302  Li2    10.000   1_556 S
Li302  Be303  10.004   .     S
Li302  C304    9.990   .     S
Be303  He691   9.995   1_556 S
Be303  H361   10.008   .     S
Be303  N305    9.997   .     S
C304   F306   10.005   .     S
C304   Ne693  10.004   1_556 S
C304   Mg308   9.997   .     S
N305   F366   10.000   .     S
N305   Na307  10.002   .     S
N305   Mg308  10.000   .     S
F306   N425   10.000   .     S
F306   Si309   9.998   .     S
F306   P876    9.995   .     S
Na307  B692    9.995   1_556 S
Na307  K370   10.003   .     S
Na307  Sc311   9.995   .     S
Mg308  Cl920  10.006   .     S
Mg308  Cr312   9.995   .     S
Si309  Si537   9.991   .     S
Si309  Ar695   9.999   1_556 S
Si309  K310    9.998   .     S
K310   Na427  10.003   .     S
K310   Al694  10.006   1_556 S
K310   Fe808   9.998   .     S
Sc311  Sc11   10.000   1_556 S
Sc311  Mn767  10.002   .     S
Sc311  Cr312  10.006   .     S
Cr312  Ca696  10.006   1_556 S
Cr312  Cr492   9.995   .     S
H313   Ti598  10.001   .     S
H313   Ce710   9.998   .     S
H313   Li314   9.997   .     S
H313   Be399  10.008   .     S
Li314  Li38   10.000   1_554 S
Li314  Be315  10.004   .     S
Li314  C316    9.990   .     S
Be315  He711   9.995   .     S
Be315  H373   10.008   .     S
Be315  N317    9.997   .     S
C316   F318   10.005   .     S
C316   Ne713  10.004   .     S
C316   Mg320   9.997   .     S
N317   F378   10.000   .     S
N317   Na319  10.002   .     S
N317   Mg320  10.000   .     S
F318   N401   10.000   .     S
F318   Si321   9.998   .     S
F318   P873    9.995   .     S
Na319  B712    9.995   .     S
Na319  K382   10.003   .     S
Na319  Sc323   9.995   .     S
Mg320  Cl918  10.006   .     S
Mg320  Cr324   9.995   .     S
Si321  Si549   9.991   .     S
Si321  Ar715   9.999   .     S
Si321  K322    9.998   .     S
K322   Na403  10.003   .     S
K322   Al714  10.006   .     S
K322   Fe778   9.998   .     S
Sc323  Sc47   10.000   1_554 S
Sc323  Mn747  10.002   .     S
Sc323  Cr324  10.006   .     S
Cr324  Ca716  10.006   .     S
Cr324  Cr528   9.995   .     S
H325   Ti600  10.001   .     S
H325   Ce700   9.998   .     S
H325   Li326   9.997   .     S
H325   Be411  10.008   .     S
Li326  Li26   10.000   1_554 S
Li326  Be327  10.004   .     S
Li326  C328    9.990   .     S
Be327  He701   9.995   .     S
Be327  H349   10.008   .     S
Be327  N329    9.997   .     S
C328   F330   10.005   .     S
C328   Ne703  10.004   .     S
C328   Mg332   9.997   .     S
N329   F354   10.000   .     S
N329   Na331  10.002   .     S
N329   Mg332  10.000   .     S
F330   N413   10.000   .     S
F330   Si333   9.998   .     S
F330   P874    9.995   .     S
Na331  B702    9.995   .     S
Na331  K358   10.003   .     S
Na331  Sc335   9.995   .     S
Mg332  Cl919  10.006   .     S
Mg332  Cr336   9.995   .     S
Si333  Si561   9.991   .     S
Si333  Ar705   9.999   .     S
Si333  K334    9.998   .     S
K334   Na415  10.003   .     S
K334   Al704  10.006   .     S
K334   Fe798   9.998   .     S
Sc335  Sc35   10.000   1_554 S
Sc335  Mn737  10.002   .     S
Sc335  Cr336  10.006   .     S
Cr336  Ca706  10.006   .     S
Cr336  Cr504   9.995   .     S
H337   Ti594  10.001   .     S
H337   Ce640   9.998   1_655 S
H337   Li338   9.997   .     S
Li338  Li62   10.000   1_655 S
Li338  Be339  10.004   .     S
Li338  C340    9.990   .     S
Be339  He641   9.995   1_655 S
Be339  H385   10.008   .     S
Be339  N341    9.997   .     S
C340   F342   10.005   .     S
C340   Ne643  10.004   1_655 S
C340   Mg344   9.997   .     S
N341   F390   10.000   .     S
N341   Na343  10.002   .     S
N341   Mg344  10.000   .     S
F342   Si345   9.998   .     S
F342   P879    9.995   .     S
Na343  B642    9.995   1_655 S
Na343  K394   10.003   .     S
Na343  Sc347   9.995   .     S
Mg344  Cl909  10.006   .     S
Mg344  Cr348   9.995   .     S
Si345  Si513   9.991   .     S
Si345  Ar645   9.999   1_655 S
Si345  K346    9.998   .     S
K346   Al644  10.006   1_655 S
K346   Fe758   9.998   .     S
Sc347  Sc71   10.000   1_655 S
Sc347  Mn817  10.002   .     S
Sc347  Cr348  10.006   .     S
Cr348  Ca646  10.006   1_655 S
Cr348  Cr456   9.995   .     S
H349   Ti600  10.001   .     S
H349   Ce610   9.998   1_655 S
H349   Li350   9.997   .     S
Li350  Li50   10.000   1_655 S
Li350  Be351  10.004   .     S
Li350  C352    9.990   .     S
Be351  He611   9.995   1_655 S
Be351  H409   10.008   .     S
Be351  N353    9.997   .     S
C352   F354   10.005   .     S
C352   Ne613  10.004   1_655 S
C352   Mg356   9.997   .     S
N353   F414   10.000   .     S
N353   Na355  10.002   .     S
N353   Mg356  10.000   .     S
F354   Si357   9.998   .     S
F354   P880    9.995   .     S
Na355  B612    9.995   1_655 S
Na355  K418   10.003   .     S
Na355  Sc359   9.995   .     S
Mg356  Cl912  10.006   .     S
Mg356  Cr360   9.995   .     S
Si357  Si501   9.991   .     S
Si357  Ar615   9.999   1_655 S
Si357  K358    9.998   .     S
K358   Al614  10.006   1_655 S
K358   Fe738   9.998   .     S
Sc359  Sc59   10.000   1_655 S
Sc359  Mn827  10.002   .     S
Sc359  Cr360  10.006   .     S
Cr360  Ca616  10.006   1_655 S
Cr360  Cr480   9.995   .     S
H361   Ti596  10.001   .     S
H361   Ce630   9.998   .     S
H361   Li362   9.997   .     S
Li362  Li86   10.000   1_455 S
Li362  Be363  10.004   .     S
Li362  C364    9.990   .     S
Be363  He631   9.995   .     S
Be363  H421   10.008   .     S
Be363  N365    9.997   .     S
C364   F366   10.005   .     S
C364   Ne633  10.004   .     S
C364   Mg368   9.997   .     S
N365   F426   10.000   .     S
N365   Na367  10.002   .     S
N365   Mg368  10.000   .     S
F366   Si369   9.998   .     S
F366   P877    9.995   .     S
Na367  B632    9.995   .     S
Na367  K430   10.003   .     S
Na367  Sc371   9.995   .     S
Mg368  Cl910  10.006   .     S
Mg368  Cr372   9.995   .     S
Si369  Si489   9.991   .     S
Si369  Ar635   9.999   .     S
Si369  K370    9.998   .     S
K370   Al634  10.006   .     S
K370   Fe768   9.998   .     S
Sc371  Sc95   10.000   1_455 S
Sc371  Mn847  10.002   .     S
Sc371  Cr372  10.006   .     S
Cr372  Ca636  10.006   .     S
Cr372  Cr444   9.995   .     S
H373   Ti598  10.001   .     S
H373   Ce620   9.998   .     S
H373   Li374   9.997   .     S
Li374  Li74   10.000   1_455 S
Li374  Be375  10.004   .     S
Li374  C376    9.990   .     S
Be375  He621   9.995   .     S
Be375  H397   10.008   .     S
Be375  N377    9.997   .     S
C376   F378   10.005   .     S
C376   Ne623  10.004   .     S
C376   Mg380   9.997   .     S
N377   F402   10.000   .     S
N377   Na379  10.002   .     S
N377   Mg380  10.000   .     S
F378   Si381   9.998   .     S
F378   P878    9.995   .     S
Na379  B622    9.995   .     S
Na379  K406   10.003   .     S
Na379  Sc383   9.995   .     S
Mg380  Cl911  10.006   .     S
Mg380  Cr384   9.995   .     S
Si381  Si525   9.991   .     S
Si381  Ar625   9.999   .     S
Si381  K382    9.998   .     S
K382   Al624  10.006   .     S
K382   Fe748   9.998   .     S
Sc383  Sc83   10.000   1_455 S
Sc383  Mn837  10.002   .     S
Sc383  Cr384  10.006   .     S
Cr384  Ca626  10.006   .     S
Cr384  Cr468   9.995   .     S
H385   Ti594  10.001   .     S
H385   Ce680   9.998   1_565 S
H385   Li386   9.997   .     S
Li386  Li110  10.000   1_565 S
Li386  Be387  10.004   .     S
Li386  C388    9.990   .     S
Be387  He681   9.995   1_565 S
Be387  N389    9.997   .     S
C388   F390   10.005   .     S
C388   Ne683  10.004   1_565 S
C388   Mg392   9.997   .     S
N389   Na391  10.002   .     S
N389   Mg392  10.000   .     S
F390   Si393   9.998   .     S
F390   P883    9.995   .     S
Na391  B682    9.995   1_565 S
Na391  Sc395   9.995   .     S
Mg392  Cl913  10.006   .     S
Mg392  Cr396   9.995   .     S
Si393  Si453   9.991   .     S
Si393  Ar685   9.999   1_565 S
Si393  K394    9.998   .     S
K394   Al684  10.006   1_565 S
K394   Fe818   9.998   .     S
Sc395  Sc119  10.000   1_565 S
Sc395  Mn787  10.002   .     S
Sc395  Cr396  10.006   .     S
Cr396  Ca686  10.006   1_565 S
Cr396  Cr576   9.995   .     S
H397   Ti598  10.001   .     S
H397   Ce650   9.998   1_565 S
H397   Li398   9.997   .     S
Li398  Li98   10.000   1_565 S
Li398  Be399  10.004   .     S
Li398  C400    9.990   .     S
Be399  He651   9.995   1_565 S
Be399  N401    9.997   .     S
C400   F402   10.005   .     S
C400   Ne653  10.004   1_565 S
C400   Mg404   9.997   .     S
N401   Na403  10.002   .     S
N401   Mg404  10.000   .     S
F402   Si405   9.998   .     S
F402   P884    9.995   .     S
Na403  B652    9.995   1_565 S
Na403  Sc407   9.995   .     S
Mg404  Cl916  10.006   .     S
Mg404  Cr408   9.995   .     S
Si405  Si465   9.991   .     S
Si405  Ar655   9.999   1_565 S
Si405  K406    9.998   .     S
K406   Al654  10.006   1_565 S
K406   Fe838   9.998   .     S
Sc407  Sc107  10.000   1_565 S
Sc407  Mn777  10.002   .     S
Sc407  Cr408  10.006   .     S
Cr408  Ca656  10.006   1_565 S
Cr408  Cr552   9.995   .     S
H409   Ti600  10.001   .     S
H409   Ce670   9.998   .     S
H409   Li410   9.997   .     S
Li410  Li134  10.000   1_545 S
Li410  Be411  10.004   .     S
Li410  C412    9.990   .     S
Be411  He671   9.995   .     S
Be411  N413    9.997   .     S
C412   F414   10.005   .     S
C412   Ne673  10.004   .     S
C412   Mg416   9.997   .     S
N413   Na415  10.002   .     S
N413   Mg416  10.000   .     S
F414   Si417   9.998   .     S
F414   P881    9.995   .     S
Na415  B672    9.995   .     S
Na415  Sc419   9.995   .     S
Mg416  Cl914  10.006   .     S
Mg416  Cr420   9.995   .     S
Si417  Si477   9.991   .     S
Si417  Ar675   9.999   .     S
Si417  K418    9.998   .     S
K418   Al674  10.006   .     S
K418   Fe828   9.998   .     S
Sc419  Sc143  10.000   1_545 S
Sc419  Mn797  10.002   .     S
Sc419  Cr420  10.006   .     S
Cr420  Ca676  10.006   .     S
Cr420  Cr564   9.995   .     S
H421   Ti596  10.001   .     S
H421   Ce660   9.998   .     S
H421   Li422   9.997   .     S
Li422  Li122  10.000   1_545 S
Li422  Be423  10.004   .     S
Li422  C424    9.990   .     S
Be423  He661   9.995   .     S
Be423  N425    9.997   .     S
C424   F426   10.005   .     S
C424   Ne663  10.004   .     S
C424   Mg428   9.997   .     S
N425   Na427  10.002   .     S
N425   Mg428  10.000   .     S
F426   Si429   9.998   .     S
F426   P882    9.995   .     S
Na427  B662    9.995   .     S
Na427  Sc431   9.995   .     S
Mg428  Cl915  10.006   .     S
Mg428  Cr432   9.995   .     S
Si429  Si441   9.991   .     S
Si429  Ar665   9.999   .     S
Si429  K430    9.998   .     S
K430   Al664  10.006   .     S
K430   Fe848   9.998   .     S
Sc431  Sc131  10.000   1_545 S
Sc431  Mn807  10.002   .     S
Sc431  Cr432  10.006   .     S
Cr432  Ca666  10.006   .     S
Cr432  Cr540   9.995   .     S
H433   Ti602  10.001   .     S
H433   Ce840   9.998   .     S
H433   Li434   9.997   .     S
H433   Be531  10.008   .     S
Li434  Be435  10.004   .     S
Li434  C436    9.990   .     S
Be435  He841   9.995   .     S
Be435  H481   10.008   .     S
Be435  N437    9.997   .     S
C436   F438   10.005   .     S
C436   Ne843  10.004   .     S
C436   Mg440   9.997   .     S
N437   F486   10.000   .     S
N437   Na439  10.002   .     S
N437   Mg440  10.000   .     S
F438   N533   10.000   .     S
F438   Si441   9.998   .     S
F438   P882    9.995   .     S
Na439  B842    9.995   .     S
Na439  K490   10.003   .     S
Na439  Sc443   9.995   .     S
Mg440  Cl910  10.006   .     S
Mg440  Cr444   9.995   .     S
Si441  Ar845   9.999   .     S
Si441  K442    9.998   .     S
K442   Na535  10.003   .     S
K442   Al844  10.006   .     S
K442   Fe668   9.998   .     S
Sc443  Mn637  10.002   .     S
Sc443  Cr444  10.006   .     S
Cr444  Ca846  10.006   .     S
H445   Ti604  10.001   .     S
H445   Ce810   9.998   .     S
H445   Li446   9.997   .     S
H445   Be567  10.008   .     S
Li446  Be447  10.004   .     S
Li446  C448    9.990   .     S
Be447  He811   9.995   .     S
Be447  H505   10.008   .     S
Be447  N449    9.997   .     S
C448   F450   10.005   .     S
C448   Ne813  10.004   .     S
C448   Mg452   9.997   .     S
N449   F510   10.000   .     S
N449   Na451  10.002   .     S
N449   Mg452  10.000   .     S
F450   N569   10.000   .     S
F450   Si453   9.998   .     S
F450   P883    9.995   .     S
Na451  B812    9.995   .     S
Na451  K514   10.003   .     S
Na451  Sc455   9.995   .     S
Mg452  Cl909  10.006   .     S
Mg452  Cr456   9.995   .     S
Si453  Ar815   9.999   .     S
Si453  K454    9.998   .     S
K454   Na571  10.003   .     S
K454   Al814  10.006   .     S
K454   Fe688   9.998   1_565 S
Sc455  Mn647  10.002   1_655 S
Sc455  Cr456  10.006   .     S
Cr456  Ca816  10.006   .     S
H457   Ti606  10.001   .     S
H457   Ce830   9.998   .     S
H457   Li458   9.997   .     S
H457   Be543  10.008   .     S
Li458  Be459  10.004   .     S
Li458  C460    9.990   .     S
Be459  He831   9.995   .     S
Be459  H517   10.008   .     S
Be459  N461    9.997   .     S
C460   F462   10.005   .     S
C460   Ne833  10.004   .     S
C460   Mg464   9.997   .     S
N461   F522   10.000   .     S
N461   Na463  10.002   .     S
N461   Mg464  10.000   .     S
F462   N545   10.000   .     S
F462   Si465   9.998   .     S
F462   P884    9.995   .     S
Na463  B832    9.995   .     S
Na463  K526   10.003   .     S
Na463  Sc467   9.995   .     S
Mg464  Cl911  10.006   .     S
Mg464  Cr468   9.995   .     S
Si465  Ar835   9.999   .     S
Si465  K466    9.998   .     S
K466   Na547  10.003   .     S
K466   Al834  10.006   .     S
K466   Fe658   9.998   1_565 S
Sc467  Mn627  10.002   .     S
Sc467  Cr468  10.006   .     S
Cr468  Ca836  10.006   .     S
H469   Ti608  10.001   .     S
H469   Ce820   9.998   .     S
H469   Li470   9.997   .     S
H469   Be555  10.008   .     S
Li470  Be471  10.004   .     S
Li470  C472    9.990   .     S
Be471  He821   9.995   .     S
Be471  H493   10.008   .     S
Be471  N473    9.997   .     S
C472   F474   10.005   .     S
C472   Ne823  10.004   .     S
C472   Mg476   9.997   .     S
N473   F498   10.000   .     S
N473   Na475  10.002   .     S
N473   Mg476  10.000   .     S
F474   N557   10.000   .     S
F474   Si477   9.998   .     S
F474   P881    9.995   .     S
Na475  B822    9.995   .     S
Na475  K502   10.003   .     S
Na475  Sc479   9.995   .     S
Mg476  Cl912  10.006   .     S
Mg476  Cr480   9.995   .     S
Si477  Ar825   9.999   .     S
Si477  K478    9.998   .     S
K478   Na559  10.003   .     S
K478   Al824  10.006   .     S
K478   Fe678   9.998   .     S
Sc479  Mn617  10.002   1_655 S
Sc479  Cr480  10.006   .     S
Cr480  Ca826  10.006   .     S
H481   Ti602  10.001   .     S
H481   Ce760   9.998   .     S
H481   Li482   9.997   .     S
Li482  Be483  10.004   .     S
Li482  C484    9.990   .     S
Be483  He761   9.995   .     S
Be483  H529   10.008   .     S
Be483  N485    9.997   .     S
C484   F486   10.005   .     S
C484   Ne763  10.004   .     S
C484   Mg488   9.997   .     S
N485   F534   10.000   .     S
N485   Na487  10.002   .     S
N485   Mg488  10.000   .     S
F486   Si489   9.998   .     S
F486   P877    9.995   .     S
Na487  B762    9.995   .     S
Na487  K538   10.003   .     S
Na487  Sc491   9.995   .     S
Mg488  Cl920  10.006   .     S
Mg488  Cr492   9.995   .     S
Si489  Ar765   9.999   .     S
Si489  K490    9.998   .     S
K490   Al764  10.006   .     S
K490   Fe638   9.998   .     S
Sc491  Mn697  10.002   1_556 S
Sc491  Cr492  10.006   .     S
Cr492  Ca766  10.006   .     S
H493   Ti608  10.001   .     S
H493   Ce730   9.998   .     S
H493   Li494   9.997   .     S
Li494  Be495  10.004   .     S
Li494  C496    9.990   .     S
Be495  He731   9.995   .     S
Be495  H553   10.008   .     S
Be495  N497    9.997   .     S
C496   F498   10.005   .     S
C496   Ne733  10.004   .     S
C496   Mg500   9.997   .     S
N497   F558   10.000   .     S
N497   Na499  10.002   .     S
N497   Mg500  10.000   .     S
F498   Si501   9.998   .     S
F498   P880    9.995   .     S
Na499  B732    9.995   .     S
Na499  K562   10.003   .     S
Na499  Sc503   9.995   .     S
Mg500  Cl919  10.006   .     S
Mg500  Cr504   9.995   .     S
Si501  Ar735   9.999   .     S
Si501  K502    9.998   .     S
K502   Al734  10.006   .     S
K502   Fe618   9.998   1_655 S
Sc503  Mn707  10.002   .     S
Sc503  Cr504  10.006   .     S
Cr504  Ca736  10.006   .     S
H505   Ti604  10.001   .     S
H505   Ce750   9.998   .     S
H505   Li506   9.997   .     S
Li506  Be507  10.004   .     S
Li506  C508    9.990   .     S
Be507  He751   9.995   .     S
Be507  H565   10.008   .     S
Be507  N509    9.997   .     S
C508   F510   10.005   .     S
C508   Ne753  10.004   .     S
C508   Mg512   9.997   .     S
N509   F570   10.000   .     S
N509   Na511  10.002   .     S
N509   Mg512  10.000   .     S
F510   Si513   9.998   .     S
F510   P879    9.995   .     S
Na511  B752    9.995   .     S
Na511  K574   10.003   .     S
Na511  Sc515   9.995   .     S
Mg512  Cl917  10.006   .     S
Mg512  Cr516   9.995   .     S
Si513  Ar755   9.999   .     S
Si513  K514    9.998   .     S
K514   Al754  10.006   .     S
K514   Fe648   9.998   1_655 S
Sc515  Mn727  10.002   1_556 S
Sc515  Cr516  10.006   .     S
Cr516  Ca756  10.006   .     S
H517   Ti606  10.001   .     S
H517   Ce740   9.998   .     S
H517   Li518   9.997   .     S
Li518  Be519  10.004   .     S
Li518  C520    9.990   .     S
Be519  He741   9.995   .     S
Be519  H541   10.008   .     S
Be519  N521    9.997   .     S
C520   F522   10.005   .     S
C520   Ne743  10.004   .     S
C520   Mg524   9.997   .     S
N521   F546   10.000   .     S
N521   Na523  10.002   .     S
N521   Mg524  10.000   .     S
F522   Si525   9.998   .     S
F522   P878    9.995   .     S
Na523  B742    9.995   .     S
Na523  K550   10.003   .     S
Na523  Sc527   9.995   .     S
Mg524  Cl918  10.006   .     S
Mg524  Cr528   9.995   .     S
Si525  Ar745   9.999   .     S
Si525  K526    9.998   .     S
K526   Al744  10.006   .     S
K526   Fe628   9.998   .     S
Sc527  Mn717  10.002   .     S
Sc527  Cr528  10.006   .     S
Cr528  Ca746  10.006   .     S
H529   Ti602  10.001   .     S
H529   Ce800   9.998   .     S
H529   Li530   9.997   .     S
Li530  Be531  10.004   .     S
Li530  C532    9.990   .     S
Be531  He801   9.995   .     S
Be531  N533    9.997   .     S
C532   F534   10.005   .     S
C532   Ne803  10.004   .     S
C532   Mg536   9.997   .     S
N533   Na535  10.002   .     S
N533   Mg536  10.000   .     S
F534   Si537   9.998   .     S
F534   P876    9.995   .     S
Na535  B802    9.995   .     S
Na535  Sc539   9.995   .     S
Mg536  Cl915  10.006   .     S
Mg536  Cr540   9.995   .     S
Si537  Ar805   9.999   .     S
Si537  K538    9.998   .     S
K538   Al804  10.006   .     S
K538   Fe698   9.998   1_556 S
Sc539  Mn667  10.002   .     S
Sc539  Cr540  10.006   .     S
Cr540  Ca806  10.006   .     S
H541   Ti606  10.001   .     S
H541   Ce770   9.998   .     S
H541   Li542   9.997   .     S
Li542  Be543  10.004   .     S
Li542  C544    9.990   .     S
Be543  He771   9.995   .     S
Be543  N545    9.997   .     S
C544   F546   10.005   .     S
C544   Ne773  10.004   .     S
C544   Mg548   9.997   .     S
N545   Na547  10.002   .     S
N545   Mg548  10.000   .     S
F546   Si549   9.998   .     S
F546   P873    9.995   .     S
Na547  B772    9.995   .     S
Na547  Sc551   9.995   .     S
Mg548  Cl916  10.006   .     S
Mg548  Cr552   9.995   .     S
Si549  Ar775   9.999   .     S
Si549  K550    9.998   .     S
K550   Al774  10.006   .     S
K550   Fe718   9.998   .     S
Sc551  Mn657  10.002   1_565 S
Sc551  Cr552  10.006   .     S
Cr552  Ca776  10.006   .     S
H553   Ti608  10.001   .     S
H553   Ce790   9.998   .     S
H553   Li554   9.997   .     S
Li554  Be555  10.004   .     S
Li554  C556    9.990   .     S
Be555  He791   9.995   .     S
Be555  N557    9.997   .     S
C556   F558   10.005   .     S
C556   Ne793  10.004   .     S
C556   Mg560   9.997   .     S
N557   Na559  10.002   .     S
N557   Mg560  10.000   .     S
F558   Si561   9.998   .     S
F558   P874    9.995   .     S
Na559  B792    9.995   .     S
Na559  Sc563   9.995   .     S
Mg560  Cl914  10.006   .     S
Mg560  Cr564   9.995   .     S
Si561  Ar795   9.999   .     S
Si561  K562    9.998   .     S
K562   Al794  10.006   .     S
K562   Fe708   9.998   .     S
Sc563  Mn677  10.002   .     S
Sc563  Cr564  10.006   .     S
Cr564  Ca796  10.006   .     S
H565   Ti604  10.001   .     S
H565   Ce780   9.998   .     S
H565   Li566   9.997   .     S
Li566  Be567  10.004   .     S
Li566  C568    9.990   .     S
Be567  He781   9.995   .     S
Be567  N569    9.997   .     S
C568   F570   10.005   .     S
C568   Ne783  10.004   .     S
C568   Mg572   9.997   .     S
N569   Na571  10.002   .     S
N569   Mg572  10.000   .     S
F570   Si573   9.998   .     S
F570   P875    9.995   .     S
Na571  B782    9.995   .     S
Na571  Sc575   9.995   .     S
Mg572  Cl913  10.006   .     S
Mg572  Cr576   9.995   .     S
Si573  Ar785   9.999   .     S
Si573  K574    9.998   .     S
K574   Al784  10.006   .     S
K574   Fe728   9.998   1_556 S
Sc575  Mn687  10.002   1_565 S
Sc575  Cr576  10.006   .     S
Cr576  Ca786  10.006   .     S
V577   Er649   9.997   .     S
V577   Er689   9.997   .     S
V577   Er609   9.997   .     S
V577   Ti578  10.007   .     S
V579   Er669   9.997   1_565 S
V579   Er719   9.997   .     S
V579   Er619   9.997   1_655 S
V579   Ti580  10.007   .     S
V581   Er679   9.997   .     S
V581   Er699   9.997   1_556 S
V581   Er629   9.997   1_655 S
V581   Ti582  10.007   .     S
V583   Er659   9.997   1_565 S
V583   Er709   9.997   1_556 S
V583   Er639   9.997   .     S
V583   Ti584  10.007   .     S
V585   Er769   9.997   .     S
V585   Er809   9.997   .     S
V585   Er729   9.997   .     S
V585   Ti586  10.007   .     S
V587   Er789   9.997   .     S
V587   Er839   9.997   .     S
V587   Er739   9.997   .     S
V587   Ti588  10.007   .     S
V589   Er799   9.997   .     S
V589   Er819   9.997   .     S
V589   Er749   9.997   .     S
V589   Ti590  10.007   .     S
V591   Er779   9.997   .     S
V591   Er829   9.997   .     S
V591   Er759   9.997   .     S
V591   Ti592  10.007   .     S
V593   Er679   9.997   1_565 S
V593   Er719   9.997   1_556 S
V593   Er639   9.997   1_655 S
V593   Ti594  10.007   .     S
V595   Er659   9.997   .     S
V595   Er689   9.997   1_556 S
V595   Er629   9.997   .     S
V595   Ti596  10.007   .     S
V597   Er649   9.997   1_565 S
V597   Er709   9.997   .     S
V597   Er619   9.997   .     S
V597   Ti598  10.007   .     S
V599   Er669   9.997   .     S
V599   Er699   9.997   .     S
V599   Er609   9.997   1_655 S
V599   Ti600  10.007   .     S
V601   Er799   9.997   .     S
V601   Er839   9.997   .     S
V601   Er759   9.997   .     S
V601   Ti602  10.007   .     S
V603   Er779   9.997   .     S
V603   Er809   9.997   .     S
V603   Er749   9.997   .     S
V603   Ti604  10.007   .     S
V605   Er769   9.997   .     S
V605   Er829   9.997   .     S
V605   Er739   9.997   .     S
V605   Ti606  10.007   .     S
V607   Er789   9.997   .     S
V607   Er819   9.997   .     S
V607   Er729   9.997   .     S
V607   Ti608  10.007   .     S
Er609  V599    9.997   1_455 S
Er609  Er629  10.000   1_554 S
Er609  Ce610  10.004   .     S
Ce610  S853   10.001   .     S
Ce610  H349    9.998   1_455 S
He611  S857    9.997   .     S
He611  Be351   9.995   1_455 S
He611  B612   10.004   .     S
B612   O858    9.998   .     S
B612   Na355   9.995   1_455 S
Ne613  C352   10.004   1_455 S
Ne613  Ar615   9.993   .     S
Ne613  Ca616   9.996   .     S
Al614  O854   10.001   .     S
Al614  K358   10.006   1_455 S
Al614  Al624  10.000   .     S
Ar615  Si357   9.999   1_455 S
Ar615  Fe618  10.006   .     S
Ca616  Cr360  10.006   1_455 S
Ca616  Mn617   9.997   .     S
Mn617  Sc479  10.002   1_455 S
Mn617  Fe618  10.000   .     S
Fe618  K502    9.998   1_455 S
Er619  V579    9.997   1_455 S
Er619  Er639  10.000   1_554 S
Er619  Ce620  10.004   .     S
Ce620  S855   10.001   .     S
Ce620  H73     9.998   1_455 S
He621  S857    9.997   1_565 S
He621  Be75    9.995   1_455 S
He621  B622   10.004   .     S
B622   O858    9.998   1_565 S
B622   Na79    9.995   1_455 S
Ne623  C76    10.004   1_455 S
Ne623  Ar625   9.993   .     S
Ne623  Ca626   9.996   .     S
Al624  O856   10.001   .     S
Al624  K82    10.006   1_455 S
Ar625  Si81    9.999   1_455 S
Ar625  Fe628  10.006   .     S
Ca626  Cr84   10.006   1_455 S
Ca626  Mn627   9.997   .     S
Mn627  Sc155  10.002   1_455 S
Mn627  Fe628  10.000   .     S
Fe628  K202    9.998   1_455 S
Er629  V581    9.997   1_455 S
Er629  Er609  10.000   1_556 S
Er629  Ce630  10.004   .     S
Ce630  S853   10.001   1_556 S
Ce630  H85     9.998   1_455 S
He631  S859    9.997   .     S
He631  Be87    9.995   1_455 S
He631  B632   10.004   .     S
B632   O860    9.998   .     S
B632   Na91    9.995   1_455 S
Ne633  C88    10.004   1_455 S
Ne633  Ar635   9.993   .     S
Ne633  Ca636   9.996   .     S
Al634  O854   10.001   1_556 S
Al634  K94    10.006   1_455 S
Al634  Al644  10.000   .     S
Ar635  Si93    9.999   1_455 S
Ar635  Fe638  10.006   .     S
Ca636  Cr96   10.006   1_455 S
Ca636  Mn637   9.997   .     S
Mn637  Sc179  10.002   1_455 S
Mn637  Fe638  10.000   .     S
Fe638  K238    9.998   1_455 S
Er639  V593    9.997   1_455 S
Er639  Er619  10.000   1_556 S
Er639  Ce640  10.004   .     S
Ce640  S855   10.001   1_556 S
Ce640  H337    9.998   1_455 S
He641  S859    9.997   1_565 S
He641  Be339   9.995   1_455 S
He641  B642   10.004   .     S
B642   O860    9.998   1_565 S
B642   Na343   9.995   1_455 S
Ne643  C340   10.004   1_455 S
Ne643  Ar645   9.993   .     S
Ne643  Ca646   9.996   .     S
Al644  O856   10.001   1_556 S
Al644  K346   10.006   1_455 S
Ar645  Si345   9.999   1_455 S
Ar645  Fe648  10.006   .     S
Ca646  Cr348  10.006   1_455 S
Ca646  Mn647   9.997   .     S
Mn647  Sc455  10.002   1_455 S
Mn647  Fe648  10.000   .     S
Fe648  K514    9.998   1_455 S
Er649  V597    9.997   1_545 S
Er649  Er669  10.000   1_455 S
Er649  Ce650  10.004   .     S
Ce650  S857   10.001   .     S
Ce650  H397    9.998   1_545 S
He651  S849    9.997   .     S
He651  Be399   9.995   1_545 S
He651  B652   10.004   .     S
B652   O850    9.998   .     S
B652   Na403   9.995   1_545 S
Ne653  C400   10.004   1_545 S
Ne653  Ar655   9.993   .     S
Ne653  Ca656   9.996   .     S
Al654  O858   10.001   .     S
Al654  K406   10.006   1_545 S
Al654  Al664  10.000   .     S
Ar655  Si405   9.999   1_545 S
Ar655  Fe658  10.006   .     S
Ca656  Cr408  10.006   1_545 S
Ca656  Mn657   9.997   .     S
Mn657  Sc551  10.002   1_545 S
Mn657  Fe658  10.000   .     S
Fe658  K466    9.998   1_545 S
Er659  V583    9.997   1_545 S
Er659  Er679  10.000   1_455 S
Er659  Ce660  10.004   .     S
Ce660  S859   10.001   .     S
Ce660  H121    9.998   1_545 S
He661  S849    9.997   1_556 S
He661  Be123   9.995   1_545 S
He661  B662   10.004   .     S
B662   O850    9.998   1_556 S
B662   Na127   9.995   1_545 S
Ne663  C124   10.004   1_545 S
Ne663  Ar665   9.993   .     S
Ne663  Ca666   9.996   .     S
Al664  O860   10.001   .     S
Al664  K130   10.006   1_545 S
Ar665  Si129   9.999   1_545 S
Ar665  Fe668  10.006   .     S
Ca666  Cr132  10.006   1_545 S
Ca666  Mn667   9.997   .     S
Mn667  Sc275  10.002   1_545 S
Mn667  Fe668  10.000   .     S
Fe668  K190    9.998   1_545 S
Er669  V579    9.997   1_545 S
Er669  Er649  10.000   1_655 S
Er669  Ce670  10.004   .     S
Ce670  S857   10.001   1_655 S
Ce670  H133    9.998   1_545 S
He671  S851    9.997   .     S
He671  Be135   9.995   1_545 S
He671  B672   10.004   .     S
B672   O852    9.998   .     S
B672   Na139   9.995   1_545 S
Ne673  C136   10.004   1_545 S
Ne673  Ar675   9.993   .     S
Ne673  Ca676   9.996   .     S
Al674  O858   10.001   1_655 S
Al674  K142   10.006   1_545 S
Al674  Al684  10.000   .     S
Ar675  Si141   9.999   1_545 S
Ar675  Fe678  10.006   .     S
Ca676  Cr144  10.006   1_545 S
Ca676  Mn677   9.997   .     S
Mn677  Sc251  10.002   1_545 S
Mn677  Fe678  10.000   .     S
Fe678  K154    9.998   1_545 S
Er679  V593    9.997   1_545 S
Er679  Er659  10.000   1_655 S
Er679  Ce680  10.004   .     S
Ce680  S859   10.001   1_655 S
Ce680  H385    9.998   1_545 S
He681  S851    9.997   1_556 S
He681  Be387   9.995   1_545 S
He681  B682   10.004   .     S
B682   O852    9.998   1_556 S
B682   Na391   9.995   1_545 S
Ne683  C388   10.004   1_545 S
Ne683  Ar685   9.993   .     S
Ne683  Ca686   9.996   .     S
Al684  O860   10.001   1_655 S
Al684  K394   10.006   1_545 S
Ar685  Si393   9.999   1_545 S
Ar685  Fe688  10.006   .     S
Ca686  Cr396  10.006   1_545 S
Ca686  Mn687   9.997   .     S
Mn687  Sc575  10.002   1_545 S
Mn687  Fe688  10.000   .     S
Fe688  K454    9.998   1_545 S
Er689  V595    9.997   1_554 S
Er689  Er709  10.000   1_545 S
Er689  Ce690  10.004   .     S
Ce690  S849   10.001   .     S
Ce690  H301    9.998   1_554 S
He691  S853    9.997   .     S
He691  Be303   9.995   1_554 S
He691  B692   10.004   .     S
B692   O854    9.998   .     S
B692   Na307   9.995   1_554 S
Ne693  C304   10.004   1_554 S
Ne693  Ar695   9.993   .     S
Ne693  Ca696   9.996   .     S
Al694  O850   10.001   .     S
Al694  K310   10.006   1_554 S
Al694  Al704  10.000   .     S
Ar695  Si309   9.999   1_554 S
Ar695  Fe698  10.006   .     S
Ca696  Cr312  10.006   1_554 S
Ca696  Mn697   9.997   .     S
Mn697  Sc491  10.002   1_554 S
Mn697  Fe698  10.000   .     S
Fe698  K538    9.998   1_554 S
Er699  V581    9.997   1_554 S
Er699  Er719  10.000   1_545 S
Er699  Ce700  10.004   .     S
Ce700  S851   10.001   .     S
Ce700  H25     9.998   1_554 S
He701  S853    9.997   1_655 S
He701  Be27    9.995   1_554 S
He701  B702   10.004   .     S
B702   O854    9.998   1_655 S
B702   Na31    9.995   1_554 S
Ne703  C28    10.004   1_554 S
Ne703  Ar705   9.993   .     S
Ne703  Ca706   9.996   .     S
Al704  O852   10.001   .     S
Al704  K34    10.006   1_554 S
Ar705  Si33    9.999   1_554 S
Ar705  Fe708  10.006   .     S
Ca706  Cr36   10.006   1_554 S
Ca706  Mn707   9.997   .     S
Mn707  Sc239  10.002   1_554 S
Mn707  Fe708  10.000   .     S
Fe708  K262    9.998   1_554 S
Er709  V583    9.997   1_554 S
Er709  Er689  10.000   1_565 S
Er709  Ce710  10.004   .     S
Ce710  S849   10.001   1_565 S
Ce710  H37     9.998   1_554 S
He711  S855    9.997   .     S
He711  Be39    9.995   1_554 S
He711  B712   10.004   .     S
B712   O856    9.998   .     S
B712   Na43    9.995   1_554 S
Ne713  C40    10.004   1_554 S
Ne713  Ar715   9.993   .     S
Ne713  Ca716   9.996   .     S
Al714  O850   10.001   1_565 S
Al714  K46    10.006   1_554 S
Al714  Al724  10.000   .     S
Ar715  Si45    9.999   1_554 S
Ar715  Fe718  10.006   .     S
Ca716  Cr48   10.006   1_554 S
Ca716  Mn717   9.997   .     S
Mn717  Sc215  10.002   1_554 S
Mn717  Fe718  10.000   .     S
Fe718  K274    9.998   1_554 S
Er719  V593    9.997   1_554 S
Er719  Er699  10.000   1_565 S
Er719  Ce720  10.004   .     S
Ce720  S851   10.001   1_565 S
Ce720  H289    9.998   1_554 S
He721  S855    9.997   1_655 S
He721  Be291   9.995   1_554 S
He721  B722   10.004   .     S
B722   O856    9.998   1_655 S
B722   Na295   9.995   1_554 S
Ne723  C292   10.004   1_554 S
Ne723  Ar725   9.993   .     S
Ne723  Ca726   9.996   .     S
Al724  O852   10.001   1_565 S
Al724  K298   10.006   1_554 S
Ar725  Si297   9.999   1_554 S
Ar725  Fe728  10.006   .     S
Ca726  Cr300  10.006   1_554 S
Ca726  Mn727   9.997   .     S
Mn727  Sc515  10.002   1_554 S
Mn727  Fe728  10.000   .     S
Fe728  K574    9.998   1_554 S
Er729  Er749  10.000   .     S
Er729  Ce730  10.004   .     S
Ce730  S865   10.001   .     S
He731  S869    9.997   .     S
He731  B732   10.004   .     S
B732   O870    9.998   .     S
Ne733  Ar735   9.993   .     S
Ne733  Ca736   9.996   .     S
Al734  O866   10.001   .     S
Al734  Al744  10.000   1_655 S
Ar735  Fe738  10.006   .     S
Ca736  Mn737   9.997   .     S
Mn737  Fe738  10.000   .     S
Er739  Er759  10.000   .     S
Er739  Ce740  10.004   .     S
Ce740  S867   10.001   .     S
He741  S869    9.997   .     S
He741  B742   10.004   .     S
B742   O870    9.998   .     S
Ne743  Ar745   9.993   .     S
Ne743  Ca746   9.996   .     S
Al744  O868   10.001   .     S
Al744  Al734  10.000   1_455 S
Ar745  Fe748  10.006   .     S
Ca746  Mn747   9.997   .     S
Mn747  Fe748  10.000   .     S
Er749  Ce750  10.004   .     S
Ce750  S865   10.001   .     S
He751  S871    9.997   .     S
He751  B752   10.004   .     S
B752   O872    9.998   .     S
Ne753  Ar755   9.993   .     S
Ne753  Ca756   9.996   .     S
Al754  O866   10.001   .     S
Al754  Al764  10.000   1_655 S
Ar755  Fe758  10.006   .     S
Ca756  Mn757   9.997   .     S
Mn757  Fe758  10.000   .     S
Er759  Ce760  10.004   .     S
Ce760  S867   10.001   .     S
He761  S871    9.997   .     S
He761  B762   10.004   .     S
B762   O872    9.998   .     S
Ne763  Ar765   9.993   .     S
Ne763  Ca766   9.996   .     S
Al764  O868   10.001   .     S
Al764  Al754  10.000   1_455 S
Ar765  Fe768  10.006   .     S
Ca766  Mn767   9.997   .     S
Mn767  Fe768  10.000   .     S
Er769  Er789  10.000   .     S
Er769  Ce770  10.004   .     S
Ce770  S869   10.001   .     S
He771  S861    9.997   .     S
He771  B772   10.004   .     S
B772   O862    9.998   .     S
Ne773  Ar775   9.993   .     S
Ne773  Ca776   9.996   .     S
Al774  O870   10.001   .     S
Al774  Al784  10.000   1_554 S
Ar775  Fe778  10.006   .     S
Ca776  Mn777   9.997   .     S
Mn777  Fe778  10.000   .     S
Er779  Er799  10.000   .     S
Er779  Ce780  10.004   .     S
Ce780  S871   10.001   .     S
He781  S861    9.997   .     S
He781  B782   10.004   .     S
B782   O862    9.998   .     S
Ne783  Ar785   9.993   .     S
Ne783  Ca786   9.996   .     S
Al784  O872   10.001   .     S
Al784  Al774  10.000   1_556 S
Ar785  Fe788  10.006   .     S
Ca786  Mn787   9.997   .     S
Mn787  Fe788  10.000   .     S
Er789  Ce790  10.004   .     S
Ce790  S869   10.001   .     S
He791  S863    9.997   .     S
He791  B792   10.004   .     S
B792   O864    9.998   .     S
Ne793  Ar795   9.993   .     S
Ne793  Ca796   9.996   .     S
Al794  O870   10.001   .     S
Al794  Al804  10.000   1_554 S
Ar795  Fe798  10.006   .     S
Ca796  Mn797   9.997   .     S
Mn797  Fe798  10.000   .     S
Er799  Ce800  10.004   .     S
Ce800  S871   10.001   .     S
He801  S863    9.997   .     S
He801  B802   10.004   .     S
B802   O864    9.998   .     S
Ne803  Ar805   9.993   .     S
Ne803  Ca806   9.996   .     S
Al804  O872   10.001   .     S
Al804  Al794  10.000   1_556 S
Ar805  Fe808  10.006   .     S
Ca806  Mn807   9.997   .     S
Mn807  Fe808  10.000   .     S
Er809  Er829  10.000   .     S
Er809  Ce810  10.004   .     S
Ce810  S861   10.001   .     S
He811  S865    9.997   .     S
He811  B812   10.004   .     S
B812   O866    9.998   .     S
Ne813  Ar815   9.993   .     S
Ne813  Ca816   9.996   .     S
Al814  O862   10.001   .     S
Al814  Al824  10.000   1_565 S
Ar815  Fe818  10.006   .     S
Ca816  Mn817   9.997   .     S
Mn817  Fe818  10.000   .     S
Er819  Er839  10.000   .     S
Er819  Ce820  10.004   .     S
Ce820  S863   10.001   .     S
He821  S865    9.997   .     S
He821  B822   10.004   .     S
B822   O866    9.998   .     S
Ne823  Ar825   9.993   .     S
Ne823  Ca826   9.996   .     S
Al824  O864   10.001   .     S
Al824  Al814  10.000   1_545 S
Ar825  Fe828  10.006   .     S
Ca826  Mn827   9.997   .     S
Mn827  Fe828  10.000   .     S
Er829  Ce830  10.004   .     S
Ce830  S861   10.001   .     S
He831  S867    9.997   .     S
He831  B832   10.004   .     S
B832   O868    9.998   .     S
Ne833  Ar835   9.993   .     S
Ne833  Ca836   9.996   .     S
Al834  O862   10.001   .     S
Al834  Al844  10.000   1_565 S
Ar835  Fe838  10.006   .     S
Ca836  Mn837   9.997   .     S
Mn837  Fe838  10.000   .     S
Er839  Ce840  10.004   .     S
Ce840  S863   10.001   .     S
He841  S867    9.997   .     S
He841  B842   10.004   .     S
B842   O868    9.998   .     S
Ne843  Ar845   9.993   .     S
Ne843  Ca846   9.996   .     S
Al844  O864   10.001   .     S
Al844  Al834  10.000   1_545 S
Ar845  Fe848  10.006   .     S
Ca846  Mn847   9.997   .     S
Mn847  Fe848  10.000   .     S
S849   Ce710  10.001   1_545 S
S849   He661   9.997   1_554 S
O850   B662    9.998   1_554 S
O850   Al714  10.001   1_545 S
S851   Ce720  10.001   1_545 S
S851   He681   9.997   1_554 S
O852   B682    9.998   1_554 S
O852   Al724  10.001   1_545 S
S853   Ce630  10.001   1_554 S
S853   He701   9.997   1_455 S
O854   B702    9.998   1_455 S
O854   Al634  10.001   1_554 S
S855   Ce640  10.001   1_554 S
S855   He721   9.997   1_455 S
O856   B722    9.998   1_455 S
O856   Al644  10.001   1_554 S
S857   Ce670  10.001   1_455 S
S857   He621   9.997   1_545 S
O858   B622    9.998   1_545 S
O858   Al674  10.001   1_455 S
S859   Ce680  10.001   1_455 S
S859   He641   9.997   1_545 S
O860   B642    9.998   1_545 S
O860   Al684  10.001   1_455 S
P873   Cl918  10.000   .     S
P873   Cl916  10.000   .     S
P874   Cl919  10.000   .     S
P874   Cl914  10.000   .     S
P875   Cl917  10.000   .     S
P875   Cl913  10.000   .     S
P876   Cl920  10.000   .     S
P876   Cl915  10.000   .     S
P877   Cl910  10.000   .     S
P877   Cl920  10.000   .     S
P878   Cl911  10.000   .     S
P878   Cl918  10.000   .     S
P879   Cl909  10.000   .     S
P879   Cl917  10.000   .     S
P880   Cl912  10.000   .     S
P880   Cl919  10.000   .     S
P881   Cl914  10.000   .     S
P881   Cl912  10.000   .     S
P882   Cl915  10.000   .     S
P882   Cl910  10.000   .     S
P883   Cl913  10.000   .     S
P883   Cl909  10.000   .     S
P884   Cl916  10.000   .     S
P884   Cl911  10.000   .     S
P885   Cl906  10.000   .     S
P885   Cl904  10.000   .     S
P886   Cl907  10.000   .     S
P886   Cl902  10.000   .     S
P887   Cl905  10.000   .     S
P887   Cl901  10.000   .     S
P888   Cl908  10.000   .     S
P888   Cl903  10.000   .     S
P889   Cl898  10.000   .     S
P889   Cl908  10.000   .     S
P890   Cl899  10.000   .     S
P890   Cl906  10.000   .     S
P891   Cl897  10.000   .     S
P891   Cl905  10.000   .     S
P892   Cl900  10.000   .     S
P892   Cl907  10.000   .     S
P893   Cl902  10.000   .     S
P893   Cl900  10.000   .     S
P894   Cl903  10.000   .     S
P894   Cl898  10.000   .     S
P895   Cl901  10.000   .     S
P895   Cl897  10.000   .     S
P896   Cl904  10.000   .     S
P896   Cl899  10.000   .     S
