data_afx
_audit_creation_date              2020-02-02
_audit_creation_method            'Pymatgen'
_symmetry_space_group_name_H-M    'P1'
_symmetry_Int_Tables_number       1
loop_
_symmetry_equiv_pos_as_xyz
  x,y,z
_cell_length_a                    43.6631
_cell_length_b                    43.6631
_cell_length_c                    64.5839
_cell_angle_alpha                 90.0
_cell_angle_beta                 90.0
_cell_angle_gamma                 120.0
loop_
_atom_site_label
_atom_site_type_symbol
_atom_site_fract_x
_atom_site_fract_y
_atom_site_fract_z
V1     V     0.0   0.771   0.9226
V2     V     0.229   0.0   0.9226
Er3     Er     0.3333   0.8957   0.8274
Er4     Er     0.1043   0.6667   0.8274
V5     V     0.0   0.771   0.5774
V6     V     0.229   0.0   0.5774
Er7     Er     0.1043   0.6667   0.6726
Er8     Er     0.3333   0.8957   0.6726
V9     V     0.771   0.771   0.5774
V10     V     0.229   0.229   0.5774
Er11     Er     0.3333   0.4376   0.6726
Er12     Er     0.1043   0.4376   0.6726
Er13     Er     0.5624   0.8957   0.6726
Er14     Er     0.5624   0.6667   0.6726
V15     V     0.771   0.0   0.5774
V16     V     0.0   0.229   0.5774
V17     V     0.229   0.229   0.9226
V18     V     0.771   0.771   0.9226
Er19     Er     0.5624   0.8957   0.8274
Er20     Er     0.5624   0.6667   0.8274
Er21     Er     0.3333   0.4376   0.8274
Er22     Er     0.1043   0.4376   0.8274
V23     V     0.771   0.0   0.9226
V24     V     0.0   0.229   0.9226
V25     V     0.771   0.771   0.0774
V26     V     0.0   0.771   0.0774
V27     V     0.229   0.0   0.0774
V28     V     0.229   0.229   0.0774
Er29     Er     0.8957   0.5624   0.1726
Er30     Er     0.6667   0.5624   0.1726
Er31     Er     0.4376   0.1043   0.1726
Er32     Er     0.4376   0.3333   0.1726
V33     V     0.771   0.771   0.4226
V34     V     0.771   0.0   0.4226
V35     V     0.0   0.229   0.4226
V36     V     0.229   0.229   0.4226
Er37     Er     0.6667   0.5624   0.3274
Er38     Er     0.8957   0.5624   0.3274
Er39     Er     0.6667   0.1043   0.3274
Er40     Er     0.4376   0.1043   0.3274
Er41     Er     0.8957   0.3333   0.3274
Er42     Er     0.4376   0.3333   0.3274
V43     V     0.0   0.771   0.4226
V44     V     0.229   0.0   0.4226
V45     V     0.0   0.229   0.0774
V46     V     0.771   0.0   0.0774
Er47     Er     0.8957   0.3333   0.1726
Er48     Er     0.6667   0.1043   0.1726
loop_
_geom_bond_atom_site_label_1
_geom_bond_atom_site_label_2
_geom_bond_distance
_geom_bond_site_symmetry_2
_ccdc_geom_bond_type
V1     Er4    10.0   .     S
V1     V2    10.0   1_565     S
V1     V18    10.0   1_455     S
V1     V26    10.0   1_556     S
V2     Er3    10.0   1_545     S
V2     V17    10.0   .     S
V2     V1    10.0   1_545     S
V2     V27    10.0   1_556     S
Er3     V2    10.0   1_565     S
Er3     Er19    10.0   .     S
Er3     Er4    10.0   .     S
Er3     Er8    10.0   .     S
Er4     Er22    10.0   .     S
Er4     Er7    10.0   .     S
V5     Er7    10.0   .     S
V5     V9    10.0   1_455     S
V5     V6    10.0   1_565     S
V5     V43    10.0   .     S
V6     Er8    10.0   1_545     S
V6     V5    10.0   1_545     S
V6     V10    10.0   .     S
V6     V44    10.0   .     S
Er7     Er12    10.0   .     S
Er7     Er8    10.0   .     S
Er8     V6    10.0   1_565     S
Er8     Er13    10.0   .     S
V9     V5    10.0   1_655     S
V9     Er14    10.0   .     S
V9     V15    10.0   1_565     S
V9     V33    10.0   .     S
V10     Er11    10.0   .     S
V10     V16    10.0   .     S
V10     V36    10.0   .     S
Er11     Er14    10.0   .     S
Er11     Er12    10.0   .     S
Er11     Er21    10.0   .     S
Er12     V16    10.0   .     S
Er12     Er22    10.0   .     S
Er13     Er14    10.0   .     S
Er13     V15    10.0   1_565     S
Er13     Er19    10.0   .     S
Er14     Er20    10.0   .     S
V15     Er13    10.0   1_545     S
V15     V16    10.0   1_655     S
V15     V9    10.0   1_545     S
V15     V34    10.0   .     S
V16     V15    10.0   1_455     S
V16     V35    10.0   .     S
V17     Er21    10.0   .     S
V17     V24    10.0   .     S
V17     V28    10.0   1_556     S
V18     Er20    10.0   .     S
V18     V1    10.0   1_655     S
V18     V23    10.0   1_565     S
V18     V25    10.0   1_556     S
Er19     Er20    10.0   .     S
Er19     V23    10.0   1_565     S
Er20     Er21    10.0   .     S
Er21     Er22    10.0   .     S
Er22     V24    10.0   .     S
V23     Er19    10.0   1_545     S
V23     V24    10.0   1_655     S
V23     V18    10.0   1_545     S
V23     V46    10.0   1_556     S
V24     V23    10.0   1_455     S
V24     V45    10.0   1_556     S
V25     Er30    10.0   .     S
V25     V46    10.0   1_565     S
V25     V26    10.0   1_655     S
V25     V18    10.0   1_554     S
V26     Er29    10.0   1_455     S
V26     V27    10.0   1_565     S
V26     V25    10.0   1_455     S
V26     V1    10.0   1_554     S
V27     V26    10.0   1_545     S
V27     Er31    10.0   .     S
V27     V28    10.0   .     S
V27     V2    10.0   1_554     S
V28     Er32    10.0   .     S
V28     V45    10.0   .     S
V28     V17    10.0   1_554     S
Er29     V26    10.0   1_655     S
Er29     Er30    10.0   .     S
Er29     Er38    10.0   .     S
Er29     Er47    10.0   .     S
Er30     Er32    10.0   .     S
Er30     Er37    10.0   .     S
Er31     Er32    10.0   .     S
Er31     Er48    10.0   .     S
Er31     Er40    10.0   .     S
Er32     Er42    10.0   .     S
V33     Er37    10.0   .     S
V33     V34    10.0   1_565     S
V33     V43    10.0   1_655     S
V34     V33    10.0   1_545     S
V34     Er39    10.0   .     S
V34     V35    10.0   1_655     S
V35     Er41    10.0   1_455     S
V35     V36    10.0   .     S
V35     V34    10.0   1_455     S
V36     Er42    10.0   .     S
V36     V44    10.0   .     S
Er37     Er42    10.0   .     S
Er37     Er38    10.0   .     S
Er38     Er41    10.0   .     S
Er38     V43    10.0   1_655     S
Er39     Er40    10.0   .     S
Er39     Er41    10.0   .     S
Er39     Er48    10.0   .     S
Er40     Er42    10.0   .     S
Er40     V44    10.0   .     S
Er41     V35    10.0   1_655     S
Er41     Er47    10.0   .     S
V43     Er38    10.0   1_455     S
V43     V44    10.0   1_565     S
V43     V33    10.0   1_455     S
V44     V43    10.0   1_545     S
V45     Er47    10.0   1_455     S
V45     V46    10.0   1_455     S
V45     V24    10.0   1_554     S
V46     V25    10.0   1_545     S
V46     Er48    10.0   .     S
V46     V45    10.0   1_655     S
V46     V23    10.0   1_554     S
Er47     V45    10.0   1_655     S
Er47     Er48    10.0   .     S
