data_alba
_audit_creation_date              2020-02-02
_audit_creation_method            'Pymatgen'
_symmetry_space_group_name_H-M    'P1'
_symmetry_Int_Tables_number       1
loop_
_symmetry_equiv_pos_as_xyz
  x,y,z
_cell_length_a                    41.1464
_cell_length_b                    41.1464
_cell_length_c                    32.0469
_cell_angle_alpha                 90.0
_cell_angle_beta                 90.0
_cell_angle_gamma                 120.0
loop_
_atom_site_label
_atom_site_type_symbol
_atom_site_fract_x
_atom_site_fract_y
_atom_site_fract_z
V1     V     0.7477   0.4954   0.844
V2     V     0.7477   0.4954   0.156
V3     V     0.7477   0.2523   0.844
V4     V     0.7477   0.2523   0.156
V5     V     0.5046   0.2523   0.844
V6     V     0.5046   0.2523   0.156
Er7     Er     0.8597   0.1403   0.656
Er8     Er     0.8597   0.7194   0.656
Er9     Er     0.7194   0.8597   0.656
Er10     Er     0.1403   0.8597   0.656
Er11     Er     0.1403   0.2806   0.656
Er12     Er     0.2806   0.1403   0.656
Er13     Er     0.1403   0.8597   0.344
Er14     Er     0.1403   0.2806   0.344
Er15     Er     0.2806   0.1403   0.344
Er16     Er     0.8597   0.7194   0.344
Er17     Er     0.7194   0.8597   0.344
Er18     Er     0.8597   0.1403   0.344
V19     V     0.2523   0.5046   0.844
V20     V     0.2523   0.5046   0.156
V21     V     0.2523   0.7477   0.844
V22     V     0.2523   0.7477   0.156
V23     V     0.4954   0.7477   0.844
V24     V     0.4954   0.7477   0.156
loop_
_geom_bond_atom_site_label_1
_geom_bond_atom_site_label_2
_geom_bond_distance
_geom_bond_site_symmetry_2
_ccdc_geom_bond_type
V1     Er8    10.0   .     S
V1     V2    10.0   1_556     S
V1     V5    10.0   .     S
V1     V3    10.0   .     S
V2     Er16    10.0   .     S
V2     V1    10.0   1_554     S
V2     V4    10.0   .     S
V2     V6    10.0   .     S
V3     V5    10.0   .     S
V3     Er7    10.0   .     S
V3     V4    10.0   1_556     S
V4     Er18    10.0   .     S
V4     V3    10.0   1_554     S
V4     V6    10.0   .     S
V5     Er12    10.0   .     S
V5     V6    10.0   1_556     S
V6     Er15    10.0   .     S
V6     V5    10.0   1_554     S
Er7     Er11    10.0   1_655     S
Er7     Er9    10.0   1_545     S
Er7     Er18    10.0   .     S
Er8     Er9    10.0   .     S
Er8     Er10    10.0   1_655     S
Er8     Er16    10.0   .     S
Er9     Er7    10.0   1_565     S
Er9     Er17    10.0   .     S
Er9     V23    10.0   .     S
Er10     Er12    10.0   1_565     S
Er10     Er8    10.0   1_455     S
Er10     Er13    10.0   .     S
Er10     V21    10.0   .     S
Er11     Er7    10.0   1_455     S
Er11     Er12    10.0   .     S
Er11     Er14    10.0   .     S
Er11     V19    10.0   .     S
Er12     Er10    10.0   1_545     S
Er12     Er15    10.0   .     S
Er13     Er15    10.0   1_565     S
Er13     Er16    10.0   1_455     S
Er13     V22    10.0   .     S
Er14     Er15    10.0   .     S
Er14     Er18    10.0   1_455     S
Er14     V20    10.0   .     S
Er15     Er13    10.0   1_545     S
Er16     Er13    10.0   1_655     S
Er16     Er17    10.0   .     S
Er17     Er18    10.0   1_565     S
Er17     V24    10.0   .     S
Er18     Er14    10.0   1_655     S
Er18     Er17    10.0   1_545     S
V19     V20    10.0   1_556     S
V19     V21    10.0   .     S
V19     V23    10.0   .     S
V20     V19    10.0   1_554     S
V20     V22    10.0   .     S
V20     V24    10.0   .     S
V21     V22    10.0   1_556     S
V21     V23    10.0   .     S
V22     V21    10.0   1_554     S
V22     V24    10.0   .     S
V23     V24    10.0   1_556     S
V24     V23    10.0   1_554     S
