data_aww
_audit_creation_date              2020-02-02
_audit_creation_method            'Pymatgen'
_symmetry_space_group_name_H-M    'P1'
_symmetry_Int_Tables_number       1
loop_
_symmetry_equiv_pos_as_xyz
  x,y,z
_cell_length_a                    43.5041
_cell_length_b                    43.5041
_cell_length_c                    25.1687
_cell_angle_alpha                 90.0
_cell_angle_beta                 90.0
_cell_angle_gamma                 90.0
loop_
_atom_site_label
_atom_site_type_symbol
_atom_site_fract_x
_atom_site_fract_y
_atom_site_fract_z
V1     V     0.4725   0.8649   0.8511
V2     V     0.4725   0.6351   0.8511
V3     V     0.3649   0.9725   0.1489
V4     V     0.1351   0.9725   0.1489
V5     V     0.3649   0.5275   0.1489
V6     V     0.1351   0.5275   0.1489
V7     V     0.0275   0.8649   0.8511
V8     V     0.0275   0.6351   0.8511
Er9     Er     0.3649   0.6351   0.5
Er10     Er     0.1351   0.6351   0.5
Er11     Er     0.1351   0.8649   0.5
Er12     Er     0.3649   0.8649   0.5
V13     V     0.8649   0.4725   0.8511
V14     V     0.6351   0.4725   0.8511
V15     V     0.9725   0.3649   0.1489
V16     V     0.9725   0.1351   0.1489
V17     V     0.5275   0.3649   0.1489
V18     V     0.5275   0.1351   0.1489
V19     V     0.8649   0.0275   0.8511
V20     V     0.6351   0.0275   0.8511
Er21     Er     0.6351   0.3649   0.5
Er22     Er     0.6351   0.1351   0.5
Er23     Er     0.8649   0.1351   0.5
Er24     Er     0.8649   0.3649   0.5
loop_
_geom_bond_atom_site_label_1
_geom_bond_atom_site_label_2
_geom_bond_distance
_geom_bond_site_symmetry_2
_ccdc_geom_bond_type
V1     V2    10.0   .     S
V1     Er12    10.0   .     S
V1     V20    10.0   1_565     S
V1     V3    10.0   1_556     S
V2     Er9    10.0   .     S
V2     V14    10.0   .     S
V2     V5    10.0   1_556     S
V3     V4    10.0   .     S
V3     Er12    10.0   .     S
V3     V18    10.0   1_565     S
V3     V1    10.0   1_554     S
V4     Er11    10.0   .     S
V4     V16    10.0   1_465     S
V4     V7    10.0   1_554     S
V5     V6    10.0   .     S
V5     Er9    10.0   .     S
V5     V17    10.0   .     S
V5     V2    10.0   1_554     S
V6     Er10    10.0   .     S
V6     V15    10.0   1_455     S
V6     V8    10.0   1_554     S
V7     V8    10.0   .     S
V7     Er11    10.0   .     S
V7     V19    10.0   1_465     S
V7     V4    10.0   1_556     S
V8     Er10    10.0   .     S
V8     V13    10.0   1_455     S
V8     V6    10.0   1_556     S
Er9     Er10    10.0   .     S
Er9     Er12    10.0   .     S
Er10     Er11    10.0   .     S
Er11     Er12    10.0   .     S
V13     V8    10.0   1_655     S
V13     V14    10.0   .     S
V13     Er24    10.0   .     S
V13     V15    10.0   1_556     S
V14     Er21    10.0   .     S
V14     V17    10.0   1_556     S
V15     V6    10.0   1_655     S
V15     V16    10.0   .     S
V15     Er24    10.0   .     S
V15     V13    10.0   1_554     S
V16     Er23    10.0   .     S
V16     V4    10.0   1_645     S
V16     V19    10.0   1_554     S
V17     V18    10.0   .     S
V17     Er21    10.0   .     S
V17     V14    10.0   1_554     S
V18     Er22    10.0   .     S
V18     V3    10.0   1_545     S
V18     V20    10.0   1_554     S
V19     V7    10.0   1_645     S
V19     V20    10.0   .     S
V19     Er23    10.0   .     S
V19     V16    10.0   1_556     S
V20     Er22    10.0   .     S
V20     V1    10.0   1_545     S
V20     V18    10.0   1_556     S
Er21     Er22    10.0   .     S
Er21     Er24    10.0   .     S
Er22     Er23    10.0   .     S
Er23     Er24    10.0   .     S
