data_bak
_audit_creation_date              2020-02-02
_audit_creation_method            'Pymatgen'
_symmetry_space_group_name_H-M    'P1'
_symmetry_Int_Tables_number       1
loop_
_symmetry_equiv_pos_as_xyz
  x,y,z
_cell_length_a                    111.2093
_cell_length_b                    111.2093
_cell_length_c                    111.2093
_cell_angle_alpha                 90.0
_cell_angle_beta                 90.0
_cell_angle_gamma                 90.0
loop_
_atom_site_label
_atom_site_type_symbol
_atom_site_fract_x
_atom_site_fract_y
_atom_site_fract_z
Er1     Er     0.8136   0.75   0.8772
Er2     Er     0.75   0.8136   0.8772
Er3     Er     0.75   0.6864   0.8772
Er4     Er     0.6864   0.75   0.8772
Er5     Er     0.8136   0.75   0.1228
Er6     Er     0.75   0.8136   0.1228
Er7     Er     0.6864   0.75   0.1228
Er8     Er     0.75   0.6864   0.1228
V9     V     0.7818   0.7818   0.955
V10     V     0.7182   0.7182   0.955
V11     V     0.7818   0.7818   0.045
V12     V     0.7182   0.7182   0.045
Er13     Er     0.8136   0.8772   0.75
Er14     Er     0.75   0.8772   0.8136
Er15     Er     0.6864   0.8772   0.75
Er16     Er     0.75   0.8772   0.6864
Er17     Er     0.75   0.1228   0.8136
Er18     Er     0.8136   0.1228   0.75
Er19     Er     0.75   0.1228   0.6864
Er20     Er     0.6864   0.1228   0.75
V21     V     0.7818   0.955   0.7818
V22     V     0.7182   0.955   0.7182
V23     V     0.7818   0.045   0.7818
V24     V     0.7182   0.045   0.7182
Er25     Er     0.8772   0.75   0.8136
Er26     Er     0.8772   0.8136   0.75
Er27     Er     0.8772   0.75   0.6864
Er28     Er     0.8772   0.6864   0.75
Er29     Er     0.1228   0.8136   0.75
Er30     Er     0.1228   0.75   0.8136
Er31     Er     0.1228   0.6864   0.75
Er32     Er     0.1228   0.75   0.6864
V33     V     0.955   0.7818   0.7818
V34     V     0.955   0.7182   0.7182
V35     V     0.045   0.7818   0.7818
V36     V     0.045   0.7182   0.7182
Er37     Er     0.6228   0.6864   0.75
Er38     Er     0.6228   0.75   0.8136
Er39     Er     0.6228   0.75   0.6864
Er40     Er     0.6228   0.8136   0.75
Er41     Er     0.3772   0.6864   0.75
Er42     Er     0.3772   0.75   0.8136
Er43     Er     0.3772   0.75   0.6864
Er44     Er     0.3772   0.8136   0.75
V45     V     0.545   0.7818   0.7182
V46     V     0.545   0.7182   0.7818
V47     V     0.455   0.7818   0.7182
V48     V     0.455   0.7182   0.7818
Er49     Er     0.6864   0.75   0.6228
Er50     Er     0.75   0.8136   0.6228
Er51     Er     0.75   0.6864   0.6228
Er52     Er     0.8136   0.75   0.6228
Er53     Er     0.6864   0.75   0.3772
Er54     Er     0.75   0.8136   0.3772
Er55     Er     0.75   0.6864   0.3772
Er56     Er     0.8136   0.75   0.3772
V57     V     0.7818   0.7182   0.545
V58     V     0.7182   0.7818   0.545
V59     V     0.7818   0.7182   0.455
V60     V     0.7182   0.7818   0.455
Er61     Er     0.6864   0.6228   0.75
Er62     Er     0.75   0.6228   0.8136
Er63     Er     0.75   0.6228   0.6864
Er64     Er     0.8136   0.6228   0.75
Er65     Er     0.6864   0.3772   0.75
Er66     Er     0.75   0.3772   0.8136
Er67     Er     0.75   0.3772   0.6864
Er68     Er     0.8136   0.3772   0.75
V69     V     0.7818   0.545   0.7182
V70     V     0.7182   0.545   0.7818
V71     V     0.7818   0.455   0.7182
V72     V     0.7182   0.455   0.7818
Er73     Er     0.25   0.3136   0.8772
Er74     Er     0.3136   0.25   0.8772
Er75     Er     0.1864   0.25   0.8772
Er76     Er     0.25   0.1864   0.8772
Er77     Er     0.25   0.3136   0.1228
Er78     Er     0.3136   0.25   0.1228
Er79     Er     0.25   0.1864   0.1228
Er80     Er     0.1864   0.25   0.1228
V81     V     0.2818   0.2818   0.955
V82     V     0.2182   0.2182   0.955
V83     V     0.2818   0.2818   0.045
V84     V     0.2182   0.2182   0.045
Er85     Er     0.3136   0.8772   0.25
Er86     Er     0.25   0.8772   0.3136
Er87     Er     0.25   0.8772   0.1864
Er88     Er     0.1864   0.8772   0.25
Er89     Er     0.3136   0.1228   0.25
Er90     Er     0.25   0.1228   0.3136
Er91     Er     0.1864   0.1228   0.25
Er92     Er     0.25   0.1228   0.1864
V93     V     0.2818   0.955   0.2818
V94     V     0.2182   0.955   0.2182
V95     V     0.2818   0.045   0.2818
V96     V     0.2182   0.045   0.2182
Er97     Er     0.6228   0.25   0.1864
Er98     Er     0.6228   0.3136   0.25
Er99     Er     0.6228   0.1864   0.25
Er100     Er     0.6228   0.25   0.3136
Er101     Er     0.3772   0.25   0.1864
Er102     Er     0.3772   0.3136   0.25
Er103     Er     0.3772   0.1864   0.25
Er104     Er     0.3772   0.25   0.3136
V105     V     0.545   0.2182   0.2818
V106     V     0.545   0.2818   0.2182
V107     V     0.455   0.2182   0.2818
V108     V     0.455   0.2818   0.2182
Er109     Er     0.25   0.6228   0.1864
Er110     Er     0.3136   0.6228   0.25
Er111     Er     0.1864   0.6228   0.25
Er112     Er     0.25   0.6228   0.3136
Er113     Er     0.25   0.3772   0.1864
Er114     Er     0.3136   0.3772   0.25
Er115     Er     0.1864   0.3772   0.25
Er116     Er     0.25   0.3772   0.3136
V117     V     0.2182   0.545   0.2818
V118     V     0.2818   0.545   0.2182
V119     V     0.2182   0.455   0.2818
V120     V     0.2818   0.455   0.2182
Er121     Er     0.25   0.1864   0.6228
Er122     Er     0.3136   0.25   0.6228
Er123     Er     0.1864   0.25   0.6228
Er124     Er     0.25   0.3136   0.6228
Er125     Er     0.25   0.1864   0.3772
Er126     Er     0.3136   0.25   0.3772
Er127     Er     0.1864   0.25   0.3772
Er128     Er     0.25   0.3136   0.3772
V129     V     0.2182   0.2818   0.545
V130     V     0.2818   0.2182   0.545
V131     V     0.2182   0.2818   0.455
V132     V     0.2818   0.2182   0.455
Er133     Er     0.8772   0.25   0.3136
Er134     Er     0.8772   0.3136   0.25
Er135     Er     0.8772   0.1864   0.25
Er136     Er     0.8772   0.25   0.1864
Er137     Er     0.1228   0.3136   0.25
Er138     Er     0.1228   0.25   0.3136
Er139     Er     0.1228   0.25   0.1864
Er140     Er     0.1228   0.1864   0.25
V141     V     0.955   0.2818   0.2818
V142     V     0.955   0.2182   0.2182
V143     V     0.045   0.2818   0.2818
V144     V     0.045   0.2182   0.2182
Er145     Er     0.8136   0.25   0.8772
Er146     Er     0.75   0.1864   0.8772
Er147     Er     0.6864   0.25   0.8772
Er148     Er     0.75   0.3136   0.8772
Er149     Er     0.75   0.1864   0.1228
Er150     Er     0.8136   0.25   0.1228
Er151     Er     0.6864   0.25   0.1228
Er152     Er     0.75   0.3136   0.1228
V153     V     0.7818   0.2182   0.955
V154     V     0.7182   0.2818   0.955
V155     V     0.7818   0.2182   0.045
V156     V     0.7182   0.2818   0.045
Er157     Er     0.8772   0.1864   0.75
Er158     Er     0.8772   0.25   0.8136
Er159     Er     0.8772   0.25   0.6864
Er160     Er     0.8772   0.3136   0.75
Er161     Er     0.1228   0.25   0.8136
Er162     Er     0.1228   0.1864   0.75
Er163     Er     0.1228   0.25   0.6864
Er164     Er     0.1228   0.3136   0.75
V165     V     0.955   0.2182   0.7818
V166     V     0.955   0.2818   0.7182
V167     V     0.045   0.2182   0.7818
V168     V     0.045   0.2818   0.7182
Er169     Er     0.25   0.6228   0.8136
Er170     Er     0.3136   0.6228   0.75
Er171     Er     0.25   0.6228   0.6864
Er172     Er     0.1864   0.6228   0.75
Er173     Er     0.25   0.3772   0.8136
Er174     Er     0.3136   0.3772   0.75
Er175     Er     0.25   0.3772   0.6864
Er176     Er     0.1864   0.3772   0.75
V177     V     0.2818   0.545   0.7818
V178     V     0.2182   0.545   0.7182
V179     V     0.2818   0.455   0.7818
V180     V     0.2182   0.455   0.7182
Er181     Er     0.6228   0.25   0.8136
Er182     Er     0.6228   0.3136   0.75
Er183     Er     0.6228   0.25   0.6864
Er184     Er     0.6228   0.1864   0.75
Er185     Er     0.3772   0.25   0.8136
Er186     Er     0.3772   0.3136   0.75
Er187     Er     0.3772   0.25   0.6864
Er188     Er     0.3772   0.1864   0.75
V189     V     0.545   0.2818   0.7818
V190     V     0.545   0.2182   0.7182
V191     V     0.455   0.2818   0.7818
V192     V     0.455   0.2182   0.7182
Er193     Er     0.25   0.8772   0.8136
Er194     Er     0.1864   0.8772   0.75
Er195     Er     0.25   0.8772   0.6864
Er196     Er     0.3136   0.8772   0.75
Er197     Er     0.1864   0.1228   0.75
Er198     Er     0.25   0.1228   0.8136
Er199     Er     0.25   0.1228   0.6864
Er200     Er     0.3136   0.1228   0.75
V201     V     0.2182   0.955   0.7818
V202     V     0.2818   0.955   0.7182
V203     V     0.2182   0.045   0.7818
V204     V     0.2818   0.045   0.7182
Er205     Er     0.1864   0.75   0.8772
Er206     Er     0.25   0.8136   0.8772
Er207     Er     0.25   0.6864   0.8772
Er208     Er     0.3136   0.75   0.8772
Er209     Er     0.25   0.8136   0.1228
Er210     Er     0.1864   0.75   0.1228
Er211     Er     0.25   0.6864   0.1228
Er212     Er     0.3136   0.75   0.1228
V213     V     0.2182   0.7818   0.955
V214     V     0.2818   0.7182   0.955
V215     V     0.2182   0.7818   0.045
V216     V     0.2818   0.7182   0.045
Er217     Er     0.6228   0.8136   0.25
Er218     Er     0.6228   0.75   0.3136
Er219     Er     0.6228   0.6864   0.25
Er220     Er     0.6228   0.75   0.1864
Er221     Er     0.3772   0.8136   0.25
Er222     Er     0.3772   0.75   0.3136
Er223     Er     0.3772   0.6864   0.25
Er224     Er     0.3772   0.75   0.1864
V225     V     0.545   0.7818   0.2818
V226     V     0.545   0.7182   0.2182
V227     V     0.455   0.7818   0.2818
V228     V     0.455   0.7182   0.2182
Er229     Er     0.25   0.8136   0.6228
Er230     Er     0.3136   0.75   0.6228
Er231     Er     0.25   0.6864   0.6228
Er232     Er     0.1864   0.75   0.6228
Er233     Er     0.25   0.8136   0.3772
Er234     Er     0.3136   0.75   0.3772
Er235     Er     0.25   0.6864   0.3772
Er236     Er     0.1864   0.75   0.3772
V237     V     0.2818   0.7818   0.545
V238     V     0.2182   0.7182   0.545
V239     V     0.2818   0.7818   0.455
V240     V     0.2182   0.7182   0.455
Er241     Er     0.8772   0.8136   0.25
Er242     Er     0.8772   0.75   0.1864
Er243     Er     0.8772   0.6864   0.25
Er244     Er     0.8772   0.75   0.3136
Er245     Er     0.1228   0.75   0.1864
Er246     Er     0.1228   0.8136   0.25
Er247     Er     0.1228   0.6864   0.25
Er248     Er     0.1228   0.75   0.3136
V249     V     0.955   0.7818   0.2182
V250     V     0.955   0.7182   0.2818
V251     V     0.045   0.7818   0.2182
V252     V     0.045   0.7182   0.2818
Er253     Er     0.75   0.8772   0.1864
Er254     Er     0.8136   0.8772   0.25
Er255     Er     0.6864   0.8772   0.25
Er256     Er     0.75   0.8772   0.3136
Er257     Er     0.8136   0.1228   0.25
Er258     Er     0.75   0.1228   0.1864
Er259     Er     0.6864   0.1228   0.25
Er260     Er     0.75   0.1228   0.3136
V261     V     0.7818   0.955   0.2182
V262     V     0.7182   0.955   0.2818
V263     V     0.7818   0.045   0.2182
V264     V     0.7182   0.045   0.2818
Er265     Er     0.8136   0.25   0.6228
Er266     Er     0.75   0.3136   0.6228
Er267     Er     0.6864   0.25   0.6228
Er268     Er     0.75   0.1864   0.6228
Er269     Er     0.8136   0.25   0.3772
Er270     Er     0.75   0.3136   0.3772
Er271     Er     0.6864   0.25   0.3772
Er272     Er     0.75   0.1864   0.3772
V273     V     0.7818   0.2818   0.545
V274     V     0.7182   0.2182   0.545
V275     V     0.7818   0.2818   0.455
V276     V     0.7182   0.2182   0.455
Er277     Er     0.8136   0.6228   0.25
Er278     Er     0.75   0.6228   0.3136
Er279     Er     0.6864   0.6228   0.25
Er280     Er     0.75   0.6228   0.1864
Er281     Er     0.8136   0.3772   0.25
Er282     Er     0.75   0.3772   0.3136
Er283     Er     0.6864   0.3772   0.25
Er284     Er     0.75   0.3772   0.1864
V285     V     0.7818   0.545   0.2818
V286     V     0.7182   0.545   0.2182
V287     V     0.7818   0.455   0.2818
V288     V     0.7182   0.455   0.2182
loop_
_geom_bond_atom_site_label_1
_geom_bond_atom_site_label_2
_geom_bond_distance
_geom_bond_site_symmetry_2
_ccdc_geom_bond_type
Er1     Er2    9.999   .     S
Er1     V9    10.0   .     S
Er1     Er3    9.999   .     S
Er1     Er25    10.001   .     S
Er2     V9    10.0   .     S
Er2     Er4    9.999   .     S
Er2     Er14    10.001   .     S
Er3     V10    10.0   .     S
Er3     Er4    9.999   .     S
Er3     Er62    10.001   .     S
Er4     V10    10.0   .     S
Er4     Er38    10.001   .     S
Er5     Er6    9.999   .     S
Er5     V11    10.0   .     S
Er5     Er8    9.999   .     S
Er5     Er242    10.001   .     S
Er6     V11    10.0   .     S
Er6     Er7    9.999   .     S
Er6     Er253    10.001   .     S
Er7     V12    10.0   .     S
Er7     Er8    9.999   .     S
Er7     Er220    10.001   .     S
Er8     V12    10.0   .     S
Er8     Er280    10.001   .     S
V9     V10    9.999   .     S
V9     V11    10.0   1_556     S
V10     V12    10.0   1_556     S
V11     V12    9.999   .     S
V11     V9    10.0   1_554     S
V12     V10    10.0   1_554     S
Er13     Er14    9.999   .     S
Er13     V21    10.0   .     S
Er13     Er16    9.999   .     S
Er13     Er26    10.001   .     S
Er14     V21    10.0   .     S
Er14     Er15    9.999   .     S
Er15     V22    10.0   .     S
Er15     Er16    9.999   .     S
Er15     Er40    10.001   .     S
Er16     V22    10.0   .     S
Er16     Er50    10.001   .     S
Er17     Er18    9.999   .     S
Er17     V23    10.0   .     S
Er17     Er20    9.999   .     S
Er17     Er146    10.001   .     S
Er18     V23    10.0   .     S
Er18     Er19    9.999   .     S
Er18     Er157    10.001   .     S
Er19     V24    10.0   .     S
Er19     Er20    9.999   .     S
Er19     Er268    10.001   .     S
Er20     V24    10.0   .     S
Er20     Er184    10.001   .     S
V21     V22    9.999   .     S
V21     V23    10.0   1_565     S
V22     V24    10.0   1_565     S
V23     V24    9.999   .     S
V23     V21    10.0   1_545     S
V24     V22    10.0   1_545     S
Er25     Er26    9.999   .     S
Er25     V33    10.0   .     S
Er25     Er28    9.999   .     S
Er26     V33    10.0   .     S
Er26     Er27    9.999   .     S
Er27     V34    10.0   .     S
Er27     Er28    9.999   .     S
Er27     Er52    10.001   .     S
Er28     V34    10.0   .     S
Er28     Er64    10.001   .     S
Er29     Er30    9.999   .     S
Er29     V35    10.0   .     S
Er29     Er32    9.999   .     S
Er29     Er194    10.001   .     S
Er30     V35    10.0   .     S
Er30     Er31    9.999   .     S
Er30     Er205    10.001   .     S
Er31     V36    10.0   .     S
Er31     Er32    9.999   .     S
Er31     Er172    10.001   .     S
Er32     V36    10.0   .     S
Er32     Er232    10.001   .     S
V33     V34    9.999   .     S
V33     V35    10.0   1_655     S
V34     V36    10.0   1_655     S
V35     V36    9.999   .     S
V35     V33    10.0   1_455     S
V36     V34    10.0   1_455     S
Er37     V46    10.0   .     S
Er37     Er38    9.999   .     S
Er37     Er39    9.999   .     S
Er37     Er61    10.001   .     S
Er38     V46    10.0   .     S
Er38     Er40    9.999   .     S
Er39     V45    10.0   .     S
Er39     Er40    9.999   .     S
Er39     Er49    10.001   .     S
Er40     V45    10.0   .     S
Er41     Er42    9.999   .     S
Er41     V48    10.0   .     S
Er41     Er43    9.999   .     S
Er41     Er170    10.001   .     S
Er42     V48    10.0   .     S
Er42     Er44    9.999   .     S
Er42     Er208    10.001   .     S
Er43     Er44    9.999   .     S
Er43     V47    10.0   .     S
Er43     Er230    10.001   .     S
Er44     V47    10.0   .     S
Er44     Er196    10.001   .     S
V45     V46    9.999   .     S
V45     V47    10.0   .     S
V46     V48    10.0   .     S
V47     V48    9.999   .     S
Er49     V58    10.0   .     S
Er49     Er50    9.999   .     S
Er49     Er51    9.999   .     S
Er50     V58    10.0   .     S
Er50     Er52    9.999   .     S
Er51     V57    10.0   .     S
Er51     Er52    9.999   .     S
Er51     Er63    10.001   .     S
Er52     V57    10.0   .     S
Er53     Er54    9.999   .     S
Er53     V60    10.0   .     S
Er53     Er55    9.999   .     S
Er53     Er218    10.001   .     S
Er54     V60    10.0   .     S
Er54     Er56    9.999   .     S
Er54     Er256    10.001   .     S
Er55     Er56    9.999   .     S
Er55     V59    10.0   .     S
Er55     Er278    10.001   .     S
Er56     V59    10.0   .     S
Er56     Er244    10.001   .     S
V57     V58    9.999   .     S
V57     V59    10.0   .     S
V58     V60    10.0   .     S
V59     V60    9.999   .     S
Er61     Er62    9.999   .     S
Er61     V70    10.0   .     S
Er61     Er63    9.999   .     S
Er62     V70    10.0   .     S
Er62     Er64    9.999   .     S
Er63     V69    10.0   .     S
Er63     Er64    9.999   .     S
Er64     V69    10.0   .     S
Er65     V72    10.0   .     S
Er65     Er66    9.999   .     S
Er65     Er67    9.999   .     S
Er65     Er182    10.001   .     S
Er66     V72    10.0   .     S
Er66     Er68    9.999   .     S
Er66     Er148    10.001   .     S
Er67     V71    10.0   .     S
Er67     Er68    9.999   .     S
Er67     Er266    10.001   .     S
Er68     V71    10.0   .     S
Er68     Er160    10.001   .     S
V69     V70    9.999   .     S
V69     V71    10.0   .     S
V70     V72    10.0   .     S
V71     V72    9.999   .     S
Er73     Er74    9.999   .     S
Er73     V81    10.0   .     S
Er73     Er75    9.999   .     S
Er73     Er173    10.001   .     S
Er74     V81    10.0   .     S
Er74     Er76    9.999   .     S
Er74     Er185    10.001   .     S
Er75     V82    10.0   .     S
Er75     Er76    9.999   .     S
Er75     Er161    10.001   .     S
Er76     V82    10.0   .     S
Er76     Er198    10.001   .     S
Er77     Er78    9.999   .     S
Er77     V83    10.0   .     S
Er77     Er80    9.999   .     S
Er77     Er113    10.001   .     S
Er78     V83    10.0   .     S
Er78     Er79    9.999   .     S
Er78     Er101    10.001   .     S
Er79     V84    10.0   .     S
Er79     Er80    9.999   .     S
Er79     Er92    10.001   .     S
Er80     V84    10.0   .     S
Er80     Er139    10.001   .     S
V81     V82    9.999   .     S
V81     V83    10.0   1_556     S
V82     V84    10.0   1_556     S
V83     V84    9.999   .     S
V83     V81    10.0   1_554     S
V84     V82    10.0   1_554     S
Er85     Er86    9.999   .     S
Er85     V93    10.0   .     S
Er85     Er87    9.999   .     S
Er85     Er221    10.001   .     S
Er86     V93    10.0   .     S
Er86     Er88    9.999   .     S
Er86     Er233    10.001   .     S
Er87     V94    10.0   .     S
Er87     Er88    9.999   .     S
Er87     Er209    10.001   .     S
Er88     V94    10.0   .     S
Er88     Er246    10.001   .     S
Er89     Er90    9.999   .     S
Er89     V95    10.0   .     S
Er89     Er92    9.999   .     S
Er89     Er103    10.001   .     S
Er90     V95    10.0   .     S
Er90     Er91    9.999   .     S
Er90     Er125    10.001   .     S
Er91     V96    10.0   .     S
Er91     Er92    9.999   .     S
Er91     Er140    10.001   .     S
Er92     V96    10.0   .     S
V93     V94    9.999   .     S
V93     V95    10.0   1_565     S
V94     V96    10.0   1_565     S
V95     V96    9.999   .     S
V95     V93    10.0   1_545     S
V96     V94    10.0   1_545     S
Er97     Er98    9.999   .     S
Er97     V106    10.0   .     S
Er97     Er99    9.999   .     S
Er97     Er151    10.001   .     S
Er98     V106    10.0   .     S
Er98     Er100    9.999   .     S
Er98     Er283    10.001   .     S
Er99     Er100    9.999   .     S
Er99     V105    10.0   .     S
Er99     Er259    10.001   .     S
Er100     V105    10.0   .     S
Er100     Er271    10.001   .     S
Er101     Er102    9.999   .     S
Er101     V108    10.0   .     S
Er101     Er103    9.999   .     S
Er102     V108    10.0   .     S
Er102     Er104    9.999   .     S
Er102     Er114    10.001   .     S
Er103     Er104    9.999   .     S
Er103     V107    10.0   .     S
Er104     V107    10.0   .     S
Er104     Er126    10.001   .     S
V105     V106    9.999   .     S
V105     V107    10.0   .     S
V106     V108    10.0   .     S
V107     V108    9.999   .     S
Er109     Er110    9.999   .     S
Er109     V118    10.0   .     S
Er109     Er111    9.999   .     S
Er109     Er211    10.001   .     S
Er110     V118    10.0   .     S
Er110     Er112    9.999   .     S
Er110     Er223    10.001   .     S
Er111     Er112    9.999   .     S
Er111     V117    10.0   .     S
Er111     Er247    10.001   .     S
Er112     V117    10.0   .     S
Er112     Er235    10.001   .     S
Er113     Er114    9.999   .     S
Er113     V120    10.0   .     S
Er113     Er115    9.999   .     S
Er114     V120    10.0   .     S
Er114     Er116    9.999   .     S
Er115     Er116    9.999   .     S
Er115     V119    10.0   .     S
Er115     Er137    10.001   .     S
Er116     V119    10.0   .     S
Er116     Er128    10.001   .     S
V117     V118    9.999   .     S
V117     V119    10.0   .     S
V118     V120    10.0   .     S
V119     V120    9.999   .     S
Er121     Er122    9.999   .     S
Er121     V130    10.0   .     S
Er121     Er123    9.999   .     S
Er121     Er199    10.001   .     S
Er122     V130    10.0   .     S
Er122     Er124    9.999   .     S
Er122     Er187    10.001   .     S
Er123     Er124    9.999   .     S
Er123     V129    10.0   .     S
Er123     Er163    10.001   .     S
Er124     V129    10.0   .     S
Er124     Er175    10.001   .     S
Er125     Er126    9.999   .     S
Er125     V132    10.0   .     S
Er125     Er127    9.999   .     S
Er126     V132    10.0   .     S
Er126     Er128    9.999   .     S
Er127     Er128    9.999   .     S
Er127     V131    10.0   .     S
Er127     Er138    10.001   .     S
Er128     V131    10.0   .     S
V129     V130    9.999   .     S
V129     V131    10.0   .     S
V130     V132    10.0   .     S
V131     V132    9.999   .     S
Er133     Er134    9.999   .     S
Er133     V141    10.0   .     S
Er133     Er135    9.999   .     S
Er133     Er269    10.001   .     S
Er134     V141    10.0   .     S
Er134     Er136    9.999   .     S
Er134     Er281    10.001   .     S
Er135     V142    10.0   .     S
Er135     Er136    9.999   .     S
Er135     Er257    10.001   .     S
Er136     V142    10.0   .     S
Er136     Er150    10.001   .     S
Er137     Er138    9.999   .     S
Er137     V143    10.0   .     S
Er137     Er139    9.999   .     S
Er138     V143    10.0   .     S
Er138     Er140    9.999   .     S
Er139     V144    10.0   .     S
Er139     Er140    9.999   .     S
Er140     V144    10.0   .     S
V141     V142    9.999   .     S
V141     V143    10.0   1_655     S
V142     V144    10.0   1_655     S
V143     V144    9.999   .     S
V143     V141    10.0   1_455     S
V144     V142    10.0   1_455     S
Er145     V153    10.0   .     S
Er145     Er146    9.999   .     S
Er145     Er148    9.999   .     S
Er145     Er158    10.001   .     S
Er146     V153    10.0   .     S
Er146     Er147    9.999   .     S
Er147     V154    10.0   .     S
Er147     Er148    9.999   .     S
Er147     Er181    10.001   .     S
Er148     V154    10.0   .     S
Er149     Er150    9.999   .     S
Er149     V155    10.0   .     S
Er149     Er151    9.999   .     S
Er149     Er258    10.001   .     S
Er150     V155    10.0   .     S
Er150     Er152    9.999   .     S
Er151     V156    10.0   .     S
Er151     Er152    9.999   .     S
Er152     V156    10.0   .     S
Er152     Er284    10.001   .     S
V153     V154    9.999   .     S
V153     V155    10.0   1_556     S
V154     V156    10.0   1_556     S
V155     V156    9.999   .     S
V155     V153    10.0   1_554     S
V156     V154    10.0   1_554     S
Er157     Er158    9.999   .     S
Er157     V165    10.0   .     S
Er157     Er159    9.999   .     S
Er158     V165    10.0   .     S
Er158     Er160    9.999   .     S
Er159     V166    10.0   .     S
Er159     Er160    9.999   .     S
Er159     Er265    10.001   .     S
Er160     V166    10.0   .     S
Er161     V167    10.0   .     S
Er161     Er162    9.999   .     S
Er161     Er164    9.999   .     S
Er162     V167    10.0   .     S
Er162     Er163    9.999   .     S
Er162     Er197    10.001   .     S
Er163     V168    10.0   .     S
Er163     Er164    9.999   .     S
Er164     V168    10.0   .     S
Er164     Er176    10.001   .     S
V165     V166    9.999   .     S
V165     V167    10.0   1_655     S
V166     V168    10.0   1_655     S
V167     V168    9.999   .     S
V167     V165    10.0   1_455     S
V168     V166    10.0   1_455     S
Er169     Er170    9.999   .     S
Er169     V177    10.0   .     S
Er169     Er172    9.999   .     S
Er169     Er207    10.001   .     S
Er170     V177    10.0   .     S
Er170     Er171    9.999   .     S
Er171     V178    10.0   .     S
Er171     Er172    9.999   .     S
Er171     Er231    10.001   .     S
Er172     V178    10.0   .     S
Er173     Er174    9.999   .     S
Er173     V179    10.0   .     S
Er173     Er176    9.999   .     S
Er174     V179    10.0   .     S
Er174     Er175    9.999   .     S
Er174     Er186    10.001   .     S
Er175     V180    10.0   .     S
Er175     Er176    9.999   .     S
Er176     V180    10.0   .     S
V177     V178    9.999   .     S
V177     V179    10.0   .     S
V178     V180    10.0   .     S
V179     V180    9.999   .     S
Er181     Er182    9.999   .     S
Er181     V189    10.0   .     S
Er181     Er184    9.999   .     S
Er182     V189    10.0   .     S
Er182     Er183    9.999   .     S
Er183     V190    10.0   .     S
Er183     Er184    9.999   .     S
Er183     Er267    10.001   .     S
Er184     V190    10.0   .     S
Er185     Er186    9.999   .     S
Er185     V191    10.0   .     S
Er185     Er188    9.999   .     S
Er186     V191    10.0   .     S
Er186     Er187    9.999   .     S
Er187     V192    10.0   .     S
Er187     Er188    9.999   .     S
Er188     V192    10.0   .     S
Er188     Er200    10.001   .     S
V189     V190    9.999   .     S
V189     V191    10.0   .     S
V190     V192    10.0   .     S
V191     V192    9.999   .     S
Er193     V201    10.0   .     S
Er193     Er194    9.999   .     S
Er193     Er196    9.999   .     S
Er193     Er206    10.001   .     S
Er194     V201    10.0   .     S
Er194     Er195    9.999   .     S
Er195     V202    10.0   .     S
Er195     Er196    9.999   .     S
Er195     Er229    10.001   .     S
Er196     V202    10.0   .     S
Er197     Er198    9.999   .     S
Er197     V203    10.0   .     S
Er197     Er199    9.999   .     S
Er198     V203    10.0   .     S
Er198     Er200    9.999   .     S
Er199     V204    10.0   .     S
Er199     Er200    9.999   .     S
Er200     V204    10.0   .     S
V201     V202    9.999   .     S
V201     V203    10.0   1_565     S
V202     V204    10.0   1_565     S
V203     V204    9.999   .     S
V203     V201    10.0   1_545     S
V204     V202    10.0   1_545     S
Er205     Er206    9.999   .     S
Er205     V213    10.0   .     S
Er205     Er207    9.999   .     S
Er206     V213    10.0   .     S
Er206     Er208    9.999   .     S
Er207     V214    10.0   .     S
Er207     Er208    9.999   .     S
Er208     V214    10.0   .     S
Er209     V215    10.0   .     S
Er209     Er210    9.999   .     S
Er209     Er212    9.999   .     S
Er210     V215    10.0   .     S
Er210     Er211    9.999   .     S
Er210     Er245    10.001   .     S
Er211     V216    10.0   .     S
Er211     Er212    9.999   .     S
Er212     V216    10.0   .     S
Er212     Er224    10.001   .     S
V213     V214    9.999   .     S
V213     V215    10.0   1_556     S
V214     V216    10.0   1_556     S
V215     V216    9.999   .     S
V215     V213    10.0   1_554     S
V216     V214    10.0   1_554     S
Er217     Er218    9.999   .     S
Er217     V225    10.0   .     S
Er217     Er220    9.999   .     S
Er217     Er255    10.001   .     S
Er218     V225    10.0   .     S
Er218     Er219    9.999   .     S
Er219     V226    10.0   .     S
Er219     Er220    9.999   .     S
Er219     Er279    10.001   .     S
Er220     V226    10.0   .     S
Er221     Er222    9.999   .     S
Er221     V227    10.0   .     S
Er221     Er224    9.999   .     S
Er222     V227    10.0   .     S
Er222     Er223    9.999   .     S
Er222     Er234    10.001   .     S
Er223     V228    10.0   .     S
Er223     Er224    9.999   .     S
Er224     V228    10.0   .     S
V225     V226    9.999   .     S
V225     V227    10.0   .     S
V226     V228    10.0   .     S
V227     V228    9.999   .     S
Er229     Er230    9.999   .     S
Er229     V237    10.0   .     S
Er229     Er232    9.999   .     S
Er230     V237    10.0   .     S
Er230     Er231    9.999   .     S
Er231     V238    10.0   .     S
Er231     Er232    9.999   .     S
Er232     V238    10.0   .     S
Er233     Er234    9.999   .     S
Er233     V239    10.0   .     S
Er233     Er236    9.999   .     S
Er234     V239    10.0   .     S
Er234     Er235    9.999   .     S
Er235     V240    10.0   .     S
Er235     Er236    9.999   .     S
Er236     V240    10.0   .     S
Er236     Er248    10.001   .     S
V237     V238    9.999   .     S
V237     V239    10.0   .     S
V238     V240    10.0   .     S
V239     V240    9.999   .     S
Er241     V249    10.0   .     S
Er241     Er242    9.999   .     S
Er241     Er244    9.999   .     S
Er241     Er254    10.001   .     S
Er242     V249    10.0   .     S
Er242     Er243    9.999   .     S
Er243     V250    10.0   .     S
Er243     Er244    9.999   .     S
Er243     Er277    10.001   .     S
Er244     V250    10.0   .     S
Er245     Er246    9.999   .     S
Er245     V251    10.0   .     S
Er245     Er247    9.999   .     S
Er246     V251    10.0   .     S
Er246     Er248    9.999   .     S
Er247     V252    10.0   .     S
Er247     Er248    9.999   .     S
Er248     V252    10.0   .     S
V249     V250    9.999   .     S
V249     V251    10.0   1_655     S
V250     V252    10.0   1_655     S
V251     V252    9.999   .     S
V251     V249    10.0   1_455     S
V252     V250    10.0   1_455     S
Er253     Er254    9.999   .     S
Er253     V261    10.0   .     S
Er253     Er255    9.999   .     S
Er254     V261    10.0   .     S
Er254     Er256    9.999   .     S
Er255     V262    10.0   .     S
Er255     Er256    9.999   .     S
Er256     V262    10.0   .     S
Er257     V263    10.0   .     S
Er257     Er258    9.999   .     S
Er257     Er260    9.999   .     S
Er258     V263    10.0   .     S
Er258     Er259    9.999   .     S
Er259     V264    10.0   .     S
Er259     Er260    9.999   .     S
Er260     V264    10.0   .     S
Er260     Er272    10.001   .     S
V261     V262    9.999   .     S
V261     V263    10.0   1_565     S
V262     V264    10.0   1_565     S
V263     V264    9.999   .     S
V263     V261    10.0   1_545     S
V264     V262    10.0   1_545     S
Er265     Er266    9.999   .     S
Er265     V273    10.0   .     S
Er265     Er268    9.999   .     S
Er266     V273    10.0   .     S
Er266     Er267    9.999   .     S
Er267     V274    10.0   .     S
Er267     Er268    9.999   .     S
Er268     V274    10.0   .     S
Er269     Er270    9.999   .     S
Er269     V275    10.0   .     S
Er269     Er272    9.999   .     S
Er270     V275    10.0   .     S
Er270     Er271    9.999   .     S
Er270     Er282    10.001   .     S
Er271     V276    10.0   .     S
Er271     Er272    9.999   .     S
Er272     V276    10.0   .     S
V273     V274    9.999   .     S
V273     V275    10.0   .     S
V274     V276    10.0   .     S
V275     V276    9.999   .     S
Er277     Er278    9.999   .     S
Er277     V285    10.0   .     S
Er277     Er280    9.999   .     S
Er278     V285    10.0   .     S
Er278     Er279    9.999   .     S
Er279     V286    10.0   .     S
Er279     Er280    9.999   .     S
Er280     V286    10.0   .     S
Er281     Er282    9.999   .     S
Er281     V287    10.0   .     S
Er281     Er284    9.999   .     S
Er282     V287    10.0   .     S
Er282     Er283    9.999   .     S
Er283     V288    10.0   .     S
Er283     Er284    9.999   .     S
Er284     V288    10.0   .     S
V285     V286    9.999   .     S
V285     V287    10.0   .     S
V286     V288    10.0   .     S
V287     V288    9.999   .     S
