data_bap
_audit_creation_date              2020-02-02
_audit_creation_method            'Pymatgen'
_symmetry_space_group_name_H-M    'P1'
_symmetry_Int_Tables_number       1
loop_
_symmetry_equiv_pos_as_xyz
  x,y,z
_cell_length_a                    41.2958
_cell_length_b                    41.2958
_cell_length_c                    56.0658
_cell_angle_alpha                 90.0
_cell_angle_beta                 90.0
_cell_angle_gamma                 120.0
loop_
_atom_site_label
_atom_site_type_symbol
_atom_site_fract_x
_atom_site_fract_y
_atom_site_fract_z
Er1     Er     0.4731   0.3333   0.9464
Er2     Er     0.4731   0.3333   0.5536
Er3     Er     0.6667   0.1398   0.5536
Er4     Er     0.4731   0.1398   0.4464
Er5     Er     0.4731   0.1398   0.0536
Er6     Er     0.6667   0.5269   0.0536
V7     V     0.6667   0.3333   0.1608
V8     V     0.6667   0.3333   0.3392
Er9     Er     0.6667   0.5269   0.4464
Er10     Er     0.8602   0.5269   0.9464
Er11     Er     0.8602   0.3333   0.0536
Er12     Er     0.6667   0.1398   0.9464
V13     V     0.6667   0.3333   0.6608
V14     V     0.6667   0.3333   0.8392
Er15     Er     0.8602   0.5269   0.5536
Er16     Er     0.8602   0.3333   0.4464
Er17     Er     0.5269   0.8602   0.9464
Er18     Er     0.3333   0.8602   0.0536
Er19     Er     0.3333   0.4731   0.9464
Er20     Er     0.5269   0.6667   0.0536
Er21     Er     0.3333   0.4731   0.5536
Er22     Er     0.1398   0.4731   0.0536
Er23     Er     0.5269   0.6667   0.4464
V24     V     0.3333   0.6667   0.3392
V25     V     0.3333   0.6667   0.1608
Er26     Er     0.3333   0.8602   0.4464
Er27     Er     0.5269   0.8602   0.5536
Er28     Er     0.1398   0.4731   0.4464
Er29     Er     0.1398   0.6667   0.5536
Er30     Er     0.1398   0.6667   0.9464
V31     V     0.3333   0.6667   0.6608
V32     V     0.3333   0.6667   0.8392
loop_
_geom_bond_atom_site_label_1
_geom_bond_atom_site_label_2
_geom_bond_distance
_geom_bond_site_symmetry_2
_ccdc_geom_bond_type
Er1     V14    10.0   .     S
Er1     Er5    10.0   1_556     S
Er1     Er6    10.0   1_556     S
Er1     Er19    10.0   .     S
Er2     V13    10.0   .     S
Er2     Er4    10.0   .     S
Er2     Er9    10.0   .     S
Er2     Er21    10.0   .     S
Er3     Er4    10.0   .     S
Er3     V13    10.0   .     S
Er3     Er16    10.0   .     S
Er3     Er27    10.0   1_545     S
Er4     V8    10.0   .     S
Er4     Er26    10.0   1_545     S
Er5     V7    10.0   .     S
Er5     Er1    10.0   1_554     S
Er5     Er12    10.0   1_554     S
Er5     Er18    10.0   1_545     S
Er6     Er1    10.0   1_554     S
Er6     V7    10.0   .     S
Er6     Er10    10.0   1_554     S
Er6     Er20    10.0   .     S
V7     V8    10.0   .     S
V7     Er11    10.0   .     S
V8     Er9    10.0   .     S
V8     Er16    10.0   .     S
Er9     Er15    10.0   .     S
Er9     Er23    10.0   .     S
Er10     V14    10.0   .     S
Er10     Er11    10.0   1_556     S
Er10     Er6    10.0   1_556     S
Er10     Er30    10.0   1_655     S
Er11     Er10    10.0   1_554     S
Er11     Er12    10.0   1_554     S
Er11     Er22    10.0   1_655     S
Er12     Er11    10.0   1_556     S
Er12     Er5    10.0   1_556     S
Er12     V14    10.0   .     S
Er12     Er17    10.0   1_545     S
V13     V14    10.0   .     S
V13     Er15    10.0   .     S
Er15     Er16    10.0   .     S
Er15     Er29    10.0   1_655     S
Er16     Er28    10.0   1_655     S
Er17     V32    10.0   .     S
Er17     Er18    10.0   1_556     S
Er17     Er20    10.0   1_556     S
Er17     Er12    10.0   1_565     S
Er18     Er17    10.0   1_554     S
Er18     V25    10.0   .     S
Er18     Er30    10.0   1_554     S
Er18     Er5    10.0   1_565     S
Er19     V32    10.0   .     S
Er19     Er20    10.0   1_556     S
Er19     Er22    10.0   1_556     S
Er20     Er17    10.0   1_554     S
Er20     Er19    10.0   1_554     S
Er20     V25    10.0   .     S
Er21     Er23    10.0   .     S
Er21     V31    10.0   .     S
Er21     Er28    10.0   .     S
Er22     Er30    10.0   1_554     S
Er22     V25    10.0   .     S
Er22     Er19    10.0   1_554     S
Er22     Er11    10.0   1_455     S
Er23     V24    10.0   .     S
Er23     Er27    10.0   .     S
V24     V25    10.0   .     S
V24     Er26    10.0   .     S
V24     Er28    10.0   .     S
Er26     Er27    10.0   .     S
Er26     Er29    10.0   .     S
Er26     Er4    10.0   1_565     S
Er27     V31    10.0   .     S
Er27     Er3    10.0   1_565     S
Er28     Er29    10.0   .     S
Er28     Er16    10.0   1_455     S
Er29     V31    10.0   .     S
Er29     Er15    10.0   1_455     S
Er30     Er22    10.0   1_556     S
Er30     V32    10.0   .     S
Er30     Er18    10.0   1_556     S
Er30     Er10    10.0   1_455     S
V31     V32    10.0   .     S
