data_bav
_audit_creation_date              2020-02-02
_audit_creation_method            'Pymatgen'
_symmetry_space_group_name_H-M    'P1'
_symmetry_Int_Tables_number       1
loop_
_symmetry_equiv_pos_as_xyz
  x,y,z
_cell_length_a                    125.8508
_cell_length_b                    125.8508
_cell_length_c                    125.8508
_cell_angle_alpha                 90.0
_cell_angle_beta                 90.0
_cell_angle_gamma                 90.0
loop_
_atom_site_label
_atom_site_type_symbol
_atom_site_fract_x
_atom_site_fract_y
_atom_site_fract_z
Er1     Er     0.8188   0.7626   0.875
Er2     Er     0.7626   0.8188   0.875
Er3     Er     0.875   0.7626   0.8188
Er4     Er     0.875   0.8188   0.7626
Er5     Er     0.875   0.7626   0.9312
Er6     Er     0.875   0.8188   0.9874
Er7     Er     0.9874   0.8188   0.875
Er8     Er     0.9312   0.7626   0.875
Er9     Er     0.7626   0.875   0.9312
Er10     Er     0.8188   0.875   0.9874
Er11     Er     0.7626   0.9312   0.875
Er12     Er     0.8188   0.9874   0.875
Er13     Er     0.9874   0.875   0.9312
Er14     Er     0.9312   0.875   0.9874
Er15     Er     0.875   0.9874   0.9312
Er16     Er     0.875   0.9312   0.9874
Er17     Er     0.9312   0.9874   0.875
Er18     Er     0.9874   0.9312   0.875
Er19     Er     0.7626   0.875   0.8188
Er20     Er     0.8188   0.875   0.7626
Er21     Er     0.9312   0.875   0.7626
Er22     Er     0.9874   0.875   0.8188
Er23     Er     0.875   0.9312   0.7626
Er24     Er     0.875   0.9874   0.8188
V25     V     0.9668   0.5229   0.5791
V26     V     0.9668   0.5791   0.5229
V27     V     0.9209   0.4771   0.5332
V28     V     0.9771   0.4209   0.5332
V29     V     0.0229   0.4668   0.5791
V30     V     0.0791   0.4668   0.5229
V31     V     0.9209   0.5332   0.4771
V32     V     0.9771   0.5332   0.4209
V33     V     0.0332   0.4771   0.4209
V34     V     0.0332   0.4209   0.4771
V35     V     0.0229   0.5791   0.4668
V36     V     0.0791   0.5229   0.4668
V37     V     0.6709   0.9668   0.7271
V38     V     0.7271   0.9668   0.6709
V39     V     0.7168   0.9771   0.8291
V40     V     0.7168   0.9209   0.7729
V41     V     0.6709   0.0229   0.7832
V42     V     0.7271   0.0791   0.7832
V43     V     0.8291   0.0332   0.7729
V44     V     0.7729   0.0332   0.8291
V45     V     0.8291   0.9771   0.7168
V46     V     0.7729   0.9209   0.7168
V47     V     0.7832   0.0229   0.6709
V48     V     0.7832   0.0791   0.7271
Er49     Er     0.625   0.0688   0.7374
Er50     Er     0.625   0.0126   0.6812
Er51     Er     0.625   0.1812   0.7374
Er52     Er     0.625   0.2374   0.6812
Er53     Er     0.5688   0.125   0.7374
Er54     Er     0.5126   0.125   0.6812
Er55     Er     0.7374   0.1812   0.625
Er56     Er     0.6812   0.2374   0.625
Er57     Er     0.7374   0.0688   0.625
Er58     Er     0.6812   0.0126   0.625
Er59     Er     0.6812   0.125   0.5126
Er60     Er     0.7374   0.125   0.5688
Er61     Er     0.5126   0.0688   0.625
Er62     Er     0.5688   0.0126   0.625
Er63     Er     0.625   0.0688   0.5126
Er64     Er     0.625   0.0126   0.5688
Er65     Er     0.5126   0.1812   0.625
Er66     Er     0.5688   0.2374   0.625
Er67     Er     0.625   0.1812   0.5126
Er68     Er     0.625   0.2374   0.5688
Er69     Er     0.5688   0.125   0.5126
Er70     Er     0.5126   0.125   0.5688
Er71     Er     0.6812   0.125   0.7374
Er72     Er     0.7374   0.125   0.6812
V73     V     0.7832   0.5229   0.1709
V74     V     0.7832   0.5791   0.2271
V75     V     0.8291   0.4771   0.2168
V76     V     0.7729   0.4209   0.2168
V77     V     0.8291   0.5332   0.2729
V78     V     0.7729   0.5332   0.3291
V79     V     0.7168   0.4771   0.3291
V80     V     0.7168   0.4209   0.2729
V81     V     0.6709   0.4668   0.2271
V82     V     0.7271   0.4668   0.1709
V83     V     0.6709   0.5229   0.2832
V84     V     0.7271   0.5791   0.2832
V85     V     0.6709   0.2271   0.4668
V86     V     0.7271   0.1709   0.4668
V87     V     0.7168   0.3291   0.4771
V88     V     0.7168   0.2729   0.4209
V89     V     0.6709   0.2832   0.5229
V90     V     0.7271   0.2832   0.5791
V91     V     0.8291   0.2168   0.4771
V92     V     0.7729   0.2168   0.4209
V93     V     0.8291   0.2729   0.5332
V94     V     0.7729   0.3291   0.5332
V95     V     0.7832   0.2271   0.5791
V96     V     0.7832   0.1709   0.5229
Er97     Er     0.7626   0.4312   0.375
Er98     Er     0.8188   0.4874   0.375
Er99     Er     0.7626   0.375   0.3188
Er100     Er     0.8188   0.375   0.2626
Er101     Er     0.7626   0.375   0.4312
Er102     Er     0.8188   0.375   0.4874
Er103     Er     0.7626   0.3188   0.375
Er104     Er     0.8188   0.2626   0.375
Er105     Er     0.875   0.3188   0.4874
Er106     Er     0.875   0.2626   0.4312
Er107     Er     0.9874   0.3188   0.375
Er108     Er     0.9312   0.2626   0.375
Er109     Er     0.875   0.2626   0.3188
Er110     Er     0.875   0.3188   0.2626
Er111     Er     0.9874   0.375   0.4312
Er112     Er     0.9312   0.375   0.4874
Er113     Er     0.875   0.4874   0.4312
Er114     Er     0.875   0.4312   0.4874
Er115     Er     0.9874   0.4312   0.375
Er116     Er     0.9312   0.4874   0.375
Er117     Er     0.875   0.4312   0.2626
Er118     Er     0.875   0.4874   0.3188
Er119     Er     0.9874   0.375   0.3188
Er120     Er     0.9312   0.375   0.2626
V121     V     0.7832   0.6709   0.0229
V122     V     0.7832   0.7271   0.0791
V123     V     0.7729   0.8291   0.0332
V124     V     0.8291   0.7729   0.0332
V125     V     0.7729   0.7168   0.9209
V126     V     0.8291   0.7168   0.9771
V127     V     0.6709   0.7271   0.9668
V128     V     0.7271   0.6709   0.9668
V129     V     0.7168   0.8291   0.9771
V130     V     0.7168   0.7729   0.9209
V131     V     0.6709   0.7832   0.0229
V132     V     0.7271   0.7832   0.0791
Er133     Er     0.7374   0.625   0.0688
Er134     Er     0.6812   0.625   0.0126
Er135     Er     0.7374   0.625   0.1812
Er136     Er     0.6812   0.625   0.2374
Er137     Er     0.7374   0.5688   0.125
Er138     Er     0.6812   0.5126   0.125
Er139     Er     0.625   0.7374   0.0688
Er140     Er     0.625   0.6812   0.0126
Er141     Er     0.5126   0.6812   0.125
Er142     Er     0.5688   0.7374   0.125
Er143     Er     0.625   0.7374   0.1812
Er144     Er     0.625   0.6812   0.2374
Er145     Er     0.5126   0.625   0.0688
Er146     Er     0.5688   0.625   0.0126
Er147     Er     0.625   0.5126   0.0688
Er148     Er     0.625   0.5688   0.0126
Er149     Er     0.5126   0.625   0.1812
Er150     Er     0.5688   0.625   0.2374
Er151     Er     0.625   0.5126   0.1812
Er152     Er     0.625   0.5688   0.2374
Er153     Er     0.5126   0.5688   0.125
Er154     Er     0.5688   0.5126   0.125
Er155     Er     0.7374   0.6812   0.125
Er156     Er     0.6812   0.7374   0.125
V157     V     0.1709   0.2271   0.9668
V158     V     0.2271   0.1709   0.9668
V159     V     0.2729   0.2168   0.9209
V160     V     0.3291   0.2168   0.9771
V161     V     0.2168   0.2729   0.9209
V162     V     0.2168   0.3291   0.9771
V163     V     0.1709   0.2832   0.0229
V164     V     0.2271   0.2832   0.0791
V165     V     0.3291   0.2729   0.0332
V166     V     0.2729   0.3291   0.0332
V167     V     0.2832   0.1709   0.0229
V168     V     0.2832   0.2271   0.0791
V169     V     0.5791   0.4668   0.0229
V170     V     0.5229   0.4668   0.0791
V171     V     0.4771   0.4209   0.0332
V172     V     0.4209   0.4771   0.0332
V173     V     0.4668   0.5791   0.0229
V174     V     0.4668   0.5229   0.0791
V175     V     0.5332   0.4771   0.9209
V176     V     0.5332   0.4209   0.9771
V177     V     0.4771   0.5332   0.9209
V178     V     0.4209   0.5332   0.9771
V179     V     0.5229   0.5791   0.9668
V180     V     0.5791   0.5229   0.9668
V181     V     0.3291   0.5332   0.7729
V182     V     0.2729   0.5332   0.8291
V183     V     0.2271   0.5791   0.7832
V184     V     0.1709   0.5229   0.7832
V185     V     0.2168   0.4771   0.8291
V186     V     0.2168   0.4209   0.7729
V187     V     0.1709   0.4668   0.7271
V188     V     0.2271   0.4668   0.6709
V189     V     0.3291   0.4771   0.7168
V190     V     0.2729   0.4209   0.7168
V191     V     0.2832   0.5229   0.6709
V192     V     0.2832   0.5791   0.7271
V193     V     0.4668   0.2271   0.6709
V194     V     0.4668   0.1709   0.7271
V195     V     0.5229   0.1709   0.7832
V196     V     0.5791   0.2271   0.7832
V197     V     0.4771   0.2168   0.8291
V198     V     0.4209   0.2168   0.7729
V199     V     0.5332   0.2729   0.8291
V200     V     0.5332   0.3291   0.7729
V201     V     0.4771   0.3291   0.7168
V202     V     0.4209   0.2729   0.7168
V203     V     0.5229   0.2832   0.6709
V204     V     0.5791   0.2832   0.7271
Er205     Er     0.3188   0.375   0.7626
Er206     Er     0.2626   0.375   0.8188
Er207     Er     0.375   0.3188   0.9874
Er208     Er     0.375   0.2626   0.9312
Er209     Er     0.2626   0.3188   0.875
Er210     Er     0.3188   0.2626   0.875
Er211     Er     0.3188   0.375   0.9874
Er212     Er     0.2626   0.375   0.9312
Er213     Er     0.2626   0.4312   0.875
Er214     Er     0.3188   0.4874   0.875
Er215     Er     0.375   0.4312   0.9874
Er216     Er     0.375   0.4874   0.9312
Er217     Er     0.4874   0.4312   0.875
Er218     Er     0.4312   0.4874   0.875
Er219     Er     0.4312   0.375   0.9874
Er220     Er     0.4874   0.375   0.9312
Er221     Er     0.4312   0.2626   0.875
Er222     Er     0.4874   0.3188   0.875
Er223     Er     0.375   0.3188   0.7626
Er224     Er     0.375   0.2626   0.8188
Er225     Er     0.375   0.4312   0.7626
Er226     Er     0.375   0.4874   0.8188
Er227     Er     0.4312   0.375   0.7626
Er228     Er     0.4874   0.375   0.8188
V229     V     0.0332   0.8291   0.7729
V230     V     0.0332   0.7729   0.8291
V231     V     0.0229   0.7832   0.6709
V232     V     0.0791   0.7832   0.7271
V233     V     0.9209   0.7729   0.7168
V234     V     0.9771   0.8291   0.7168
V235     V     0.9668   0.6709   0.7271
V236     V     0.9668   0.7271   0.6709
V237     V     0.9771   0.7168   0.8291
V238     V     0.9209   0.7168   0.7729
V239     V     0.0229   0.6709   0.7832
V240     V     0.0791   0.7271   0.7832
Er241     Er     0.0688   0.7374   0.625
Er242     Er     0.0126   0.6812   0.625
Er243     Er     0.1812   0.7374   0.625
Er244     Er     0.2374   0.6812   0.625
Er245     Er     0.125   0.7374   0.5688
Er246     Er     0.125   0.6812   0.5126
Er247     Er     0.1812   0.625   0.5126
Er248     Er     0.2374   0.625   0.5688
Er249     Er     0.1812   0.5126   0.625
Er250     Er     0.2374   0.5688   0.625
Er251     Er     0.1812   0.625   0.7374
Er252     Er     0.2374   0.625   0.6812
Er253     Er     0.125   0.5126   0.5688
Er254     Er     0.125   0.5688   0.5126
Er255     Er     0.0688   0.5126   0.625
Er256     Er     0.0126   0.5688   0.625
Er257     Er     0.0688   0.625   0.5126
Er258     Er     0.0126   0.625   0.5688
Er259     Er     0.0688   0.625   0.7374
Er260     Er     0.0126   0.625   0.6812
Er261     Er     0.125   0.5126   0.6812
Er262     Er     0.125   0.5688   0.7374
Er263     Er     0.125   0.7374   0.6812
Er264     Er     0.125   0.6812   0.7374
V265     V     0.4771   0.9209   0.5332
V266     V     0.4209   0.9771   0.5332
V267     V     0.4668   0.0229   0.5791
V268     V     0.4668   0.0791   0.5229
V269     V     0.5332   0.9209   0.4771
V270     V     0.5332   0.9771   0.4209
V271     V     0.5791   0.9668   0.5229
V272     V     0.5229   0.9668   0.5791
V273     V     0.4771   0.0332   0.4209
V274     V     0.4209   0.0332   0.4771
V275     V     0.5791   0.0229   0.4668
V276     V     0.5229   0.0791   0.4668
V277     V     0.5332   0.8291   0.2729
V278     V     0.5332   0.7729   0.3291
V279     V     0.5791   0.7832   0.2271
V280     V     0.5229   0.7832   0.1709
V281     V     0.4771   0.8291   0.2168
V282     V     0.4209   0.7729   0.2168
V283     V     0.5229   0.6709   0.2832
V284     V     0.5791   0.7271   0.2832
V285     V     0.4771   0.7168   0.3291
V286     V     0.4209   0.7168   0.2729
V287     V     0.4668   0.6709   0.2271
V288     V     0.4668   0.7271   0.1709
V289     V     0.3291   0.7168   0.4771
V290     V     0.2729   0.7168   0.4209
V291     V     0.2271   0.6709   0.4668
V292     V     0.1709   0.7271   0.4668
V293     V     0.1709   0.7832   0.5229
V294     V     0.2271   0.7832   0.5791
V295     V     0.2168   0.8291   0.4771
V296     V     0.2168   0.7729   0.4209
V297     V     0.2729   0.8291   0.5332
V298     V     0.3291   0.7729   0.5332
V299     V     0.2832   0.7271   0.5791
V300     V     0.2832   0.6709   0.5229
Er301     Er     0.375   0.7626   0.3188
Er302     Er     0.375   0.8188   0.2626
Er303     Er     0.4874   0.875   0.3188
Er304     Er     0.4312   0.875   0.2626
Er305     Er     0.4312   0.9874   0.375
Er306     Er     0.4874   0.9312   0.375
Er307     Er     0.4312   0.875   0.4874
Er308     Er     0.4874   0.875   0.4312
Er309     Er     0.375   0.9874   0.4312
Er310     Er     0.375   0.9312   0.4874
Er311     Er     0.3188   0.875   0.4874
Er312     Er     0.2626   0.875   0.4312
Er313     Er     0.375   0.9874   0.3188
Er314     Er     0.375   0.9312   0.2626
Er315     Er     0.3188   0.9874   0.375
Er316     Er     0.2626   0.9312   0.375
Er317     Er     0.3188   0.875   0.2626
Er318     Er     0.2626   0.875   0.3188
Er319     Er     0.375   0.7626   0.4312
Er320     Er     0.375   0.8188   0.4874
Er321     Er     0.3188   0.7626   0.375
Er322     Er     0.2626   0.8188   0.375
Er323     Er     0.4312   0.7626   0.375
Er324     Er     0.4874   0.8188   0.375
V325     V     0.0332   0.2729   0.3291
V326     V     0.0332   0.3291   0.2729
V327     V     0.0229   0.1709   0.2832
V328     V     0.0791   0.2271   0.2832
V329     V     0.9668   0.1709   0.2271
V330     V     0.9668   0.2271   0.1709
V331     V     0.9209   0.2168   0.2729
V332     V     0.9771   0.2168   0.3291
V333     V     0.9209   0.2729   0.2168
V334     V     0.9771   0.3291   0.2168
V335     V     0.0229   0.2832   0.1709
V336     V     0.0791   0.2832   0.2271
V337     V     0.2168   0.9209   0.2729
V338     V     0.2168   0.9771   0.3291
V339     V     0.1709   0.9668   0.2271
V340     V     0.2271   0.9668   0.1709
V341     V     0.2729   0.9209   0.2168
V342     V     0.3291   0.9771   0.2168
V343     V     0.1709   0.0229   0.2832
V344     V     0.2271   0.0791   0.2832
V345     V     0.3291   0.0332   0.2729
V346     V     0.2729   0.0332   0.3291
V347     V     0.2832   0.0229   0.1709
V348     V     0.2832   0.0791   0.2271
Er349     Er     0.2374   0.125   0.1812
Er350     Er     0.1812   0.125   0.2374
Er351     Er     0.1812   0.125   0.0126
Er352     Er     0.2374   0.125   0.0688
Er353     Er     0.125   0.2374   0.0688
Er354     Er     0.125   0.1812   0.0126
Er355     Er     0.1812   0.2374   0.125
Er356     Er     0.2374   0.1812   0.125
Er357     Er     0.1812   0.0126   0.125
Er358     Er     0.2374   0.0688   0.125
Er359     Er     0.125   0.0126   0.1812
Er360     Er     0.125   0.0688   0.2374
Er361     Er     0.125   0.1812   0.2374
Er362     Er     0.125   0.2374   0.1812
Er363     Er     0.0126   0.125   0.1812
Er364     Er     0.0688   0.125   0.2374
Er365     Er     0.0126   0.1812   0.125
Er366     Er     0.0688   0.2374   0.125
Er367     Er     0.125   0.0126   0.0688
Er368     Er     0.125   0.0688   0.0126
Er369     Er     0.0126   0.125   0.0688
Er370     Er     0.0688   0.125   0.0126
Er371     Er     0.0126   0.0688   0.125
Er372     Er     0.0688   0.0126   0.125
V373     V     0.0791   0.9668   0.0229
V374     V     0.0229   0.9668   0.0791
V375     V     0.9771   0.9209   0.0332
V376     V     0.9209   0.9771   0.0332
V377     V     0.0332   0.9771   0.9209
V378     V     0.0332   0.9209   0.9771
V379     V     0.0791   0.0229   0.9668
V380     V     0.0229   0.0791   0.9668
V381     V     0.9668   0.0791   0.0229
V382     V     0.9668   0.0229   0.0791
V383     V     0.9209   0.0332   0.9771
V384     V     0.9771   0.0332   0.9209
loop_
_geom_bond_atom_site_label_1
_geom_bond_atom_site_label_2
_geom_bond_distance
_geom_bond_site_symmetry_2
_ccdc_geom_bond_type
Er1     Er2    9.999   .     S
Er1     V125    10.0   .     S
Er1     Er5    10.001   .     S
Er1     Er3    10.001   .     S
Er2     V130    10.0   .     S
Er2     Er9    10.001   .     S
Er2     Er19    10.001   .     S
Er3     Er4    9.999   .     S
Er3     V238    10.0   .     S
Er3     Er8    10.001   .     S
Er4     V233    10.0   .     S
Er4     Er21    10.001   .     S
Er4     Er20    10.001   .     S
Er5     Er6    9.999   .     S
Er5     V126    10.0   .     S
Er5     Er8    10.001   .     S
Er6     V124    10.0   1_556     S
Er6     Er14    10.001   .     S
Er6     Er10    10.001   .     S
Er7     Er8    9.999   .     S
Er7     V230    10.0   1_655     S
Er7     Er13    10.001   .     S
Er7     Er22    10.001   .     S
Er8     V237    10.0   .     S
Er9     Er10    9.999   .     S
Er9     V129    10.0   .     S
Er9     Er11    10.001   .     S
Er10     V123    10.0   1_556     S
Er10     Er16    10.001   .     S
Er11     Er12    9.999   .     S
Er11     V39    10.0   .     S
Er11     Er19    10.001   .     S
Er12     V44    10.0   1_565     S
Er12     Er15    10.001   .     S
Er12     Er24    10.001   .     S
Er13     Er14    9.999   .     S
Er13     V378    10.0   1_655     S
Er13     Er18    10.001   .     S
Er14     V375    10.0   1_556     S
Er14     Er16    10.001   .     S
Er15     Er16    9.999   .     S
Er15     V383    10.0   1_565     S
Er15     Er17    10.001   .     S
Er16     V376    10.0   1_556     S
Er17     Er18    9.999   .     S
Er17     V384    10.0   1_565     S
Er17     Er24    10.001   .     S
Er18     V377    10.0   1_655     S
Er18     Er22    10.001   .     S
Er19     Er20    9.999   .     S
Er19     V40    10.0   .     S
Er20     V46    10.0   .     S
Er20     Er23    10.001   .     S
Er21     Er22    9.999   .     S
Er21     V234    10.0   .     S
Er21     Er23    10.001   .     S
Er22     V229    10.0   1_655     S
Er23     Er24    9.999   .     S
Er23     V45    10.0   .     S
Er24     V43    10.0   1_565     S
V25     V26    9.999   .     S
V25     V27    9.999   .     S
V25     V29    10.001   1_655     S
V25     Er256    10.0   1_655     S
V26     V31    9.999   .     S
V26     V35    10.001   1_655     S
V26     Er258    10.0   1_655     S
V27     V28    9.999   .     S
V27     V31    10.001   .     S
V27     Er114    10.0   .     S
V28     V29    9.999   1_655     S
V28     V34    10.001   1_655     S
V28     Er112    10.0   .     S
V29     V30    9.999   .     S
V29     V28    9.999   1_455     S
V29     V25    10.001   1_455     S
V29     Er255    10.0   .     S
V30     V34    9.999   .     S
V30     V36    10.001   .     S
V30     Er253    10.0   .     S
V31     V32    9.999   .     S
V31     Er113    10.0   .     S
V32     V35    9.999   1_655     S
V32     V33    10.001   1_655     S
V32     Er116    10.0   .     S
V33     V34    9.999   .     S
V33     V36    9.999   .     S
V33     V32    10.001   1_455     S
V33     Er115    10.0   1_455     S
V34     V28    10.001   1_455     S
V34     Er111    10.0   1_455     S
V35     V36    9.999   .     S
V35     V32    9.999   1_455     S
V35     V26    10.001   1_455     S
V35     Er257    10.0   .     S
V36     Er254    10.0   .     S
V37     V38    9.999   .     S
V37     V40    9.999   .     S
V37     V41    10.001   1_565     S
V37     Er50    10.0   1_565     S
V38     V46    9.999   .     S
V38     V47    10.001   1_565     S
V38     Er58    10.0   1_565     S
V39     V40    9.999   .     S
V39     V41    9.999   1_565     S
V39     V44    10.001   1_565     S
V40     V46    10.001   .     S
V41     V42    9.999   .     S
V41     V39    9.999   1_545     S
V41     V37    10.001   1_545     S
V41     Er49    10.0   .     S
V42     V44    9.999   .     S
V42     V48    10.001   .     S
V42     Er71    10.0   .     S
V43     Er24    10.0   1_545     S
V43     V44    9.999   .     S
V43     V48    9.999   .     S
V43     V45    10.001   1_545     S
V44     Er12    10.0   1_545     S
V44     V39    10.001   1_545     S
V45     V46    9.999   .     S
V45     V47    9.999   1_565     S
V45     V43    10.001   1_565     S
V47     V48    9.999   .     S
V47     V45    9.999   1_545     S
V47     V38    10.001   1_545     S
V47     Er57    10.0   .     S
V48     Er72    10.0   .     S
Er49     Er50    9.999   .     S
Er49     Er53    10.001   .     S
Er49     Er71    10.001   .     S
Er50     V37    10.0   1_545     S
Er50     Er62    10.001   .     S
Er50     Er58    10.001   .     S
Er51     Er52    9.999   .     S
Er51     V196    10.0   .     S
Er51     Er53    10.001   .     S
Er51     Er71    10.001   .     S
Er52     V204    10.0   .     S
Er52     Er66    10.001   .     S
Er52     Er56    10.001   .     S
Er53     Er54    9.999   .     S
Er53     V195    10.0   .     S
Er54     V194    10.0   .     S
Er54     Er61    10.001   .     S
Er54     Er65    10.001   .     S
Er55     Er56    9.999   .     S
Er55     V95    10.0   .     S
Er55     Er60    10.001   .     S
Er55     Er72    10.001   .     S
Er56     V90    10.0   .     S
Er56     Er68    10.001   .     S
Er57     Er58    9.999   .     S
Er57     Er60    10.001   .     S
Er57     Er72    10.001   .     S
Er58     V38    10.0   1_545     S
Er58     Er64    10.001   .     S
Er59     Er60    9.999   .     S
Er59     V86    10.0   .     S
Er59     Er67    10.001   .     S
Er59     Er63    10.001   .     S
Er60     V96    10.0   .     S
Er61     Er62    9.999   .     S
Er61     V267    10.0   .     S
Er61     Er70    10.001   .     S
Er62     V272    10.0   1_545     S
Er62     Er64    10.001   .     S
Er63     Er64    9.999   .     S
Er63     V275    10.0   .     S
Er63     Er69    10.001   .     S
Er64     V271    10.0   1_545     S
Er65     Er66    9.999   .     S
Er65     V193    10.0   .     S
Er65     Er70    10.001   .     S
Er66     V203    10.0   .     S
Er66     Er68    10.001   .     S
Er67     Er68    9.999   .     S
Er67     V85    10.0   .     S
Er67     Er69    10.001   .     S
Er68     V89    10.0   .     S
Er69     Er70    9.999   .     S
Er69     V276    10.0   .     S
Er70     V268    10.0   .     S
Er71     Er72    9.999   .     S
V73     V74    9.999   .     S
V73     V75    9.999   .     S
V73     V82    10.001   .     S
V73     Er137    10.0   .     S
V74     V77    9.999   .     S
V74     V84    10.001   .     S
V74     Er135    10.0   .     S
V75     V76    9.999   .     S
V75     V77    10.001   .     S
V75     Er117    10.0   .     S
V76     V82    9.999   .     S
V76     V80    10.001   .     S
V76     Er100    10.0   .     S
V77     V78    9.999   .     S
V77     Er118    10.0   .     S
V78     V84    9.999   .     S
V78     V79    10.001   .     S
V78     Er98    10.0   .     S
V79     V80    9.999   .     S
V79     V83    9.999   .     S
V79     Er97    10.0   .     S
V80     V81    9.999   .     S
V80     Er99    10.0   .     S
V81     V82    9.999   .     S
V81     V83    10.001   .     S
V81     Er151    10.0   .     S
V82     Er138    10.0   .     S
V83     V84    9.999   .     S
V83     Er152    10.0   .     S
V84     Er136    10.0   .     S
V85     V86    9.999   .     S
V85     V88    9.999   .     S
V85     V89    10.001   .     S
V86     V92    9.999   .     S
V86     V96    10.001   .     S
V87     V88    9.999   .     S
V87     V89    9.999   .     S
V87     V94    10.001   .     S
V87     Er101    10.0   .     S
V88     V92    10.001   .     S
V88     Er103    10.0   .     S
V89     V90    9.999   .     S
V90     V94    9.999   .     S
V90     V95    10.001   .     S
V91     V92    9.999   .     S
V91     V96    9.999   .     S
V91     V93    10.001   .     S
V91     Er106    10.0   .     S
V92     Er104    10.0   .     S
V93     V94    9.999   .     S
V93     V95    9.999   .     S
V93     Er105    10.0   .     S
V94     Er102    10.0   .     S
V95     V96    9.999   .     S
Er97     Er98    9.999   .     S
Er97     Er99    10.001   .     S
Er97     Er101    10.001   .     S
Er98     Er118    10.001   .     S
Er98     Er113    10.001   .     S
Er99     Er100    9.999   .     S
Er99     Er103    10.001   .     S
Er100     Er117    10.001   .     S
Er100     Er110    10.001   .     S
Er101     Er102    9.999   .     S
Er101     Er103    10.001   .     S
Er102     Er105    10.001   .     S
Er102     Er114    10.001   .     S
Er103     Er104    9.999   .     S
Er104     Er106    10.001   .     S
Er104     Er109    10.001   .     S
Er105     Er106    9.999   .     S
Er105     Er112    10.001   .     S
Er106     Er108    10.001   .     S
Er107     Er108    9.999   .     S
Er107     V325    10.0   1_655     S
Er107     Er119    10.001   .     S
Er107     Er111    10.001   .     S
Er108     V332    10.0   .     S
Er108     Er109    10.001   .     S
Er109     Er110    9.999   .     S
Er109     V331    10.0   .     S
Er110     V333    10.0   .     S
Er110     Er120    10.001   .     S
Er111     Er112    9.999   .     S
Er111     V34    10.0   1_655     S
Er111     Er115    10.001   .     S
Er112     Er114    10.001   .     S
Er113     Er114    9.999   .     S
Er113     Er116    10.001   .     S
Er115     Er116    9.999   .     S
Er115     V33    10.0   1_655     S
Er115     Er119    10.001   .     S
Er116     Er118    10.001   .     S
Er117     Er118    9.999   .     S
Er117     Er120    10.001   .     S
Er119     Er120    9.999   .     S
Er119     V326    10.0   1_655     S
Er120     V334    10.0   .     S
V121     V122    9.999   .     S
V121     V126    9.999   1_554     S
V121     V128    10.001   1_554     S
V121     Er133    10.0   .     S
V122     V124    9.999   .     S
V122     V132    10.001   .     S
V122     Er155    10.0   .     S
V123     Er10    10.0   1_554     S
V123     V124    9.999   .     S
V123     V132    9.999   .     S
V123     V129    10.001   1_554     S
V124     Er6    10.0   1_554     S
V124     V126    10.001   1_554     S
V125     V126    9.999   .     S
V125     V128    9.999   .     S
V125     V130    10.001   .     S
V126     V121    9.999   1_556     S
V126     V124    10.001   1_556     S
V127     V128    9.999   .     S
V127     V130    9.999   .     S
V127     V131    10.001   1_556     S
V127     Er140    10.0   1_556     S
V128     V121    10.001   1_556     S
V128     Er134    10.0   1_556     S
V129     V130    9.999   .     S
V129     V131    9.999   1_556     S
V129     V123    10.001   1_556     S
V131     V132    9.999   .     S
V131     V129    9.999   1_554     S
V131     V127    10.001   1_554     S
V131     Er139    10.0   .     S
V132     Er156    10.0   .     S
Er133     Er134    9.999   .     S
Er133     Er137    10.001   .     S
Er133     Er155    10.001   .     S
Er134     V128    10.0   1_554     S
Er134     Er148    10.001   .     S
Er134     Er140    10.001   .     S
Er135     Er136    9.999   .     S
Er135     Er137    10.001   .     S
Er135     Er155    10.001   .     S
Er136     Er152    10.001   .     S
Er136     Er144    10.001   .     S
Er137     Er138    9.999   .     S
Er138     Er151    10.001   .     S
Er138     Er147    10.001   .     S
Er139     Er140    9.999   .     S
Er139     Er142    10.001   .     S
Er139     Er156    10.001   .     S
Er140     V127    10.0   1_554     S
Er140     Er146    10.001   .     S
Er141     Er142    9.999   .     S
Er141     V288    10.0   .     S
Er141     Er145    10.001   .     S
Er141     Er149    10.001   .     S
Er142     V280    10.0   .     S
Er142     Er143    10.001   .     S
Er143     Er144    9.999   .     S
Er143     V279    10.0   .     S
Er143     Er156    10.001   .     S
Er144     V284    10.0   .     S
Er144     Er150    10.001   .     S
Er145     Er146    9.999   .     S
Er145     V173    10.0   .     S
Er145     Er153    10.001   .     S
Er146     V179    10.0   1_554     S
Er146     Er148    10.001   .     S
Er147     Er148    9.999   .     S
Er147     V169    10.0   .     S
Er147     Er154    10.001   .     S
Er148     V180    10.0   1_554     S
Er149     Er150    9.999   .     S
Er149     V287    10.0   .     S
Er149     Er153    10.001   .     S
Er150     V283    10.0   .     S
Er150     Er152    10.001   .     S
Er151     Er152    9.999   .     S
Er151     Er154    10.001   .     S
Er153     Er154    9.999   .     S
Er153     V174    10.0   .     S
Er154     V170    10.0   .     S
Er155     Er156    9.999   .     S
V157     V158    9.999   .     S
V157     V161    9.999   .     S
V157     V163    10.001   1_556     S
V157     Er354    10.0   1_556     S
V158     V159    9.999   .     S
V158     V167    10.001   1_556     S
V158     Er351    10.0   1_556     S
V159     V160    9.999   .     S
V159     V161    10.001   .     S
V159     Er210    10.0   .     S
V160     V167    9.999   1_556     S
V160     V165    10.001   1_556     S
V160     Er208    10.0   .     S
V161     V162    9.999   .     S
V161     Er209    10.0   .     S
V162     V163    9.999   1_556     S
V162     V166    10.001   1_556     S
V162     Er212    10.0   .     S
V163     V164    9.999   .     S
V163     V162    9.999   1_554     S
V163     V157    10.001   1_554     S
V163     Er353    10.0   .     S
V164     V166    9.999   .     S
V164     V168    10.001   .     S
V164     Er355    10.0   .     S
V165     V166    9.999   .     S
V165     V168    9.999   .     S
V165     V160    10.001   1_554     S
V165     Er207    10.0   1_554     S
V166     V162    10.001   1_554     S
V166     Er211    10.0   1_554     S
V167     V168    9.999   .     S
V167     V160    9.999   1_554     S
V167     V158    10.001   1_554     S
V167     Er352    10.0   .     S
V168     Er356    10.0   .     S
V169     V170    9.999   .     S
V169     V176    9.999   1_554     S
V169     V180    10.001   1_554     S
V170     V171    9.999   .     S
V170     V174    10.001   .     S
V171     V172    9.999   .     S
V171     V176    10.001   1_554     S
V171     Er219    10.0   1_554     S
V172     V174    9.999   .     S
V172     V178    10.001   1_554     S
V172     Er215    10.0   1_554     S
V173     V174    9.999   .     S
V173     V178    9.999   1_554     S
V173     V179    10.001   1_554     S
V175     V176    9.999   .     S
V175     V180    9.999   .     S
V175     V177    10.001   .     S
V175     Er217    10.0   .     S
V176     V169    9.999   1_556     S
V176     V171    10.001   1_556     S
V176     Er220    10.0   .     S
V177     V178    9.999   .     S
V177     V179    9.999   .     S
V177     Er218    10.0   .     S
V178     V173    9.999   1_556     S
V178     V172    10.001   1_556     S
V178     Er216    10.0   .     S
V179     Er146    10.0   1_556     S
V179     V180    9.999   .     S
V179     V173    10.001   1_556     S
V180     Er148    10.0   1_556     S
V180     V169    10.001   1_556     S
V181     V182    9.999   .     S
V181     V192    9.999   .     S
V181     V189    10.001   .     S
V181     Er226    10.0   .     S
V182     V183    9.999   .     S
V182     V185    10.001   .     S
V182     Er214    10.0   .     S
V183     V184    9.999   .     S
V183     V192    10.001   .     S
V183     Er251    10.0   .     S
V184     V185    9.999   .     S
V184     V187    10.001   .     S
V184     Er262    10.0   .     S
V185     V186    9.999   .     S
V185     Er213    10.0   .     S
V186     V187    9.999   .     S
V186     V190    10.001   .     S
V186     Er206    10.0   .     S
V187     V188    9.999   .     S
V187     Er261    10.0   .     S
V188     V190    9.999   .     S
V188     V191    10.001   .     S
V188     Er249    10.0   .     S
V189     V190    9.999   .     S
V189     V191    9.999   .     S
V189     Er225    10.0   .     S
V190     Er205    10.0   .     S
V191     V192    9.999   .     S
V191     Er250    10.0   .     S
V192     Er252    10.0   .     S
V193     V194    9.999   .     S
V193     V202    9.999   .     S
V193     V203    10.001   .     S
V194     V198    9.999   .     S
V194     V195    10.001   .     S
V195     V196    9.999   .     S
V195     V197    9.999   .     S
V196     V199    9.999   .     S
V196     V204    10.001   .     S
V197     V198    9.999   .     S
V197     V199    10.001   .     S
V197     Er221    10.0   .     S
V198     V202    10.001   .     S
V198     Er224    10.0   .     S
V199     V200    9.999   .     S
V199     Er222    10.0   .     S
V200     V204    9.999   .     S
V200     V201    10.001   .     S
V200     Er228    10.0   .     S
V201     V202    9.999   .     S
V201     V203    9.999   .     S
V201     Er227    10.0   .     S
V202     Er223    10.0   .     S
V203     V204    9.999   .     S
Er205     Er206    9.999   .     S
Er205     Er225    10.001   .     S
Er205     Er223    10.001   .     S
Er206     Er213    10.001   .     S
Er206     Er209    10.001   .     S
Er207     Er208    9.999   .     S
Er207     V165    10.0   1_556     S
Er207     Er211    10.001   .     S
Er207     Er219    10.001   .     S
Er208     Er210    10.001   .     S
Er208     Er221    10.001   .     S
Er209     Er210    9.999   .     S
Er209     Er212    10.001   .     S
Er210     Er224    10.001   .     S
Er211     Er212    9.999   .     S
Er211     V166    10.0   1_556     S
Er211     Er215    10.001   .     S
Er212     Er213    10.001   .     S
Er213     Er214    9.999   .     S
Er214     Er216    10.001   .     S
Er214     Er226    10.001   .     S
Er215     Er216    9.999   .     S
Er215     V172    10.0   1_556     S
Er215     Er219    10.001   .     S
Er216     Er218    10.001   .     S
Er217     Er218    9.999   .     S
Er217     Er220    10.001   .     S
Er217     Er228    10.001   .     S
Er218     Er226    10.001   .     S
Er219     Er220    9.999   .     S
Er219     V171    10.0   1_556     S
Er220     Er222    10.001   .     S
Er221     Er222    9.999   .     S
Er221     Er224    10.001   .     S
Er222     Er228    10.001   .     S
Er223     Er224    9.999   .     S
Er223     Er227    10.001   .     S
Er225     Er226    9.999   .     S
Er225     Er227    10.001   .     S
Er227     Er228    9.999   .     S
V229     Er22    10.0   1_455     S
V229     V230    9.999   .     S
V229     V232    9.999   .     S
V229     V234    10.001   1_455     S
V230     Er7    10.0   1_455     S
V230     V240    9.999   .     S
V230     V237    10.001   1_455     S
V231     V232    9.999   .     S
V231     V234    9.999   1_455     S
V231     V236    10.001   1_455     S
V231     Er241    10.0   .     S
V232     V240    10.001   .     S
V232     Er263    10.0   .     S
V233     V234    9.999   .     S
V233     V236    9.999   .     S
V233     V238    10.001   .     S
V234     V231    9.999   1_655     S
V234     V229    10.001   1_655     S
V235     V236    9.999   .     S
V235     V238    9.999   .     S
V235     V239    10.001   1_655     S
V235     Er260    10.0   1_655     S
V236     V231    10.001   1_655     S
V236     Er242    10.0   1_655     S
V237     V238    9.999   .     S
V237     V239    9.999   1_655     S
V237     V230    10.001   1_655     S
V239     V240    9.999   .     S
V239     V237    9.999   1_455     S
V239     V235    10.001   1_455     S
V239     Er259    10.0   .     S
V240     Er264    10.0   .     S
Er241     Er242    9.999   .     S
Er241     Er245    10.001   .     S
Er241     Er263    10.001   .     S
Er242     V236    10.0   1_455     S
Er242     Er258    10.001   .     S
Er242     Er260    10.001   .     S
Er243     Er244    9.999   .     S
Er243     V294    10.0   .     S
Er243     Er245    10.001   .     S
Er243     Er263    10.001   .     S
Er244     V299    10.0   .     S
Er244     Er248    10.001   .     S
Er244     Er252    10.001   .     S
Er245     Er246    9.999   .     S
Er245     V293    10.0   .     S
Er246     V292    10.0   .     S
Er246     Er257    10.001   .     S
Er246     Er247    10.001   .     S
Er247     Er248    9.999   .     S
Er247     V291    10.0   .     S
Er247     Er254    10.001   .     S
Er248     V300    10.0   .     S
Er248     Er250    10.001   .     S
Er249     Er250    9.999   .     S
Er249     Er253    10.001   .     S
Er249     Er261    10.001   .     S
Er250     Er252    10.001   .     S
Er251     Er252    9.999   .     S
Er251     Er262    10.001   .     S
Er251     Er264    10.001   .     S
Er253     Er254    9.999   .     S
Er253     Er255    10.001   .     S
Er254     Er257    10.001   .     S
Er255     Er256    9.999   .     S
Er255     Er261    10.001   .     S
Er256     V25    10.0   1_455     S
Er256     Er258    10.001   .     S
Er256     Er260    10.001   .     S
Er257     Er258    9.999   .     S
Er258     V26    10.0   1_455     S
Er259     Er260    9.999   .     S
Er259     Er262    10.001   .     S
Er259     Er264    10.001   .     S
Er260     V235    10.0   1_455     S
Er261     Er262    9.999   .     S
Er263     Er264    9.999   .     S
V265     V266    9.999   .     S
V265     V272    9.999   .     S
V265     V269    10.001   .     S
V265     Er307    10.0   .     S
V266     V267    9.999   1_565     S
V266     V274    10.001   1_565     S
V266     Er310    10.0   .     S
V267     V268    9.999   .     S
V267     V266    9.999   1_545     S
V267     V272    10.001   1_545     S
V268     V274    9.999   .     S
V268     V276    10.001   .     S
V269     V270    9.999   .     S
V269     V271    9.999   .     S
V269     Er308    10.0   .     S
V270     V275    9.999   1_565     S
V270     V273    10.001   1_565     S
V270     Er306    10.0   .     S
V271     Er64    10.0   1_565     S
V271     V272    9.999   .     S
V271     V275    10.001   1_565     S
V272     Er62    10.0   1_565     S
V272     V267    10.001   1_565     S
V273     V274    9.999   .     S
V273     V276    9.999   .     S
V273     V270    10.001   1_545     S
V273     Er305    10.0   1_545     S
V274     V266    10.001   1_545     S
V274     Er309    10.0   1_545     S
V275     V276    9.999   .     S
V275     V270    9.999   1_545     S
V275     V271    10.001   1_545     S
V277     V278    9.999   .     S
V277     V279    9.999   .     S
V277     V281    10.001   .     S
V277     Er303    10.0   .     S
V278     V284    9.999   .     S
V278     V285    10.001   .     S
V278     Er324    10.0   .     S
V279     V280    9.999   .     S
V279     V284    10.001   .     S
V280     V281    9.999   .     S
V280     V288    10.001   .     S
V281     V282    9.999   .     S
V281     Er304    10.0   .     S
V282     V288    9.999   .     S
V282     V286    10.001   .     S
V282     Er302    10.0   .     S
V283     V284    9.999   .     S
V283     V285    9.999   .     S
V283     V287    10.001   .     S
V285     V286    9.999   .     S
V285     Er323    10.0   .     S
V286     V287    9.999   .     S
V286     Er301    10.0   .     S
V287     V288    9.999   .     S
V289     V290    9.999   .     S
V289     V300    9.999   .     S
V289     V298    10.001   .     S
V289     Er319    10.0   .     S
V290     V291    9.999   .     S
V290     V296    10.001   .     S
V290     Er321    10.0   .     S
V291     V292    9.999   .     S
V291     V300    10.001   .     S
V292     V296    9.999   .     S
V292     V293    10.001   .     S
V293     V294    9.999   .     S
V293     V295    9.999   .     S
V294     V297    9.999   .     S
V294     V299    10.001   .     S
V295     V296    9.999   .     S
V295     V297    10.001   .     S
V295     Er312    10.0   .     S
V296     Er322    10.0   .     S
V297     V298    9.999   .     S
V297     Er311    10.0   .     S
V298     V299    9.999   .     S
V298     Er320    10.0   .     S
V299     V300    9.999   .     S
Er301     Er302    9.999   .     S
Er301     Er321    10.001   .     S
Er301     Er323    10.001   .     S
Er302     Er304    10.001   .     S
Er302     Er317    10.001   .     S
Er303     Er304    9.999   .     S
Er303     Er306    10.001   .     S
Er303     Er324    10.001   .     S
Er304     Er314    10.001   .     S
Er305     Er306    9.999   .     S
Er305     V273    10.0   1_565     S
Er305     Er313    10.001   .     S
Er305     Er309    10.001   .     S
Er306     Er308    10.001   .     S
Er307     Er308    9.999   .     S
Er307     Er310    10.001   .     S
Er307     Er320    10.001   .     S
Er308     Er324    10.001   .     S
Er309     Er310    9.999   .     S
Er309     V274    10.0   1_565     S
Er309     Er315    10.001   .     S
Er310     Er311    10.001   .     S
Er311     Er312    9.999   .     S
Er311     Er320    10.001   .     S
Er312     Er316    10.001   .     S
Er312     Er322    10.001   .     S
Er313     Er314    9.999   .     S
Er313     V345    10.0   1_565     S
Er313     Er315    10.001   .     S
Er314     V342    10.0   .     S
Er314     Er317    10.001   .     S
Er315     Er316    9.999   .     S
Er315     V346    10.0   1_565     S
Er316     V338    10.0   .     S
Er316     Er318    10.001   .     S
Er317     Er318    9.999   .     S
Er317     V341    10.0   .     S
Er318     V337    10.0   .     S
Er318     Er322    10.001   .     S
Er319     Er320    9.999   .     S
Er319     Er321    10.001   .     S
Er319     Er323    10.001   .     S
Er321     Er322    9.999   .     S
Er323     Er324    9.999   .     S
V325     Er107    10.0   1_455     S
V325     V326    9.999   .     S
V325     V328    9.999   .     S
V325     V332    10.001   1_455     S
V326     Er119    10.0   1_455     S
V326     V336    9.999   .     S
V326     V334    10.001   1_455     S
V327     V328    9.999   .     S
V327     V332    9.999   1_455     S
V327     V329    10.001   1_455     S
V327     Er364    10.0   .     S
V328     V336    10.001   .     S
V328     Er361    10.0   .     S
V329     V330    9.999   .     S
V329     V331    9.999   .     S
V329     V327    10.001   1_655     S
V329     Er363    10.0   1_655     S
V330     V333    9.999   .     S
V330     V335    10.001   1_655     S
V330     Er365    10.0   1_655     S
V331     V332    9.999   .     S
V331     V333    10.001   .     S
V332     V327    9.999   1_655     S
V332     V325    10.001   1_655     S
V333     V334    9.999   .     S
V334     V335    9.999   1_655     S
V334     V326    10.001   1_655     S
V335     V336    9.999   .     S
V335     V334    9.999   1_455     S
V335     V330    10.001   1_455     S
V335     Er366    10.0   .     S
V336     Er362    10.0   .     S
V337     V338    9.999   .     S
V337     V339    9.999   .     S
V337     V341    10.001   .     S
V338     V343    9.999   1_565     S
V338     V346    10.001   1_565     S
V339     V340    9.999   .     S
V339     V343    10.001   1_565     S
V339     Er359    10.0   1_565     S
V340     V341    9.999   .     S
V340     V347    10.001   1_565     S
V340     Er357    10.0   1_565     S
V341     V342    9.999   .     S
V342     V347    9.999   1_565     S
V342     V345    10.001   1_565     S
V343     V344    9.999   .     S
V343     V338    9.999   1_545     S
V343     V339    10.001   1_545     S
V343     Er360    10.0   .     S
V344     V346    9.999   .     S
V344     V348    10.001   .     S
V344     Er350    10.0   .     S
V345     Er313    10.0   1_545     S
V345     V346    9.999   .     S
V345     V348    9.999   .     S
V345     V342    10.001   1_545     S
V346     Er315    10.0   1_545     S
V346     V338    10.001   1_545     S
V347     V348    9.999   .     S
V347     V342    9.999   1_545     S
V347     V340    10.001   1_545     S
V347     Er358    10.0   .     S
V348     Er349    10.0   .     S
Er349     Er350    9.999   .     S
Er349     Er356    10.001   .     S
Er349     Er358    10.001   .     S
Er350     Er360    10.001   .     S
Er350     Er361    10.001   .     S
Er351     Er352    9.999   .     S
Er351     V158    10.0   1_554     S
Er351     Er368    10.001   .     S
Er351     Er354    10.001   .     S
Er352     Er356    10.001   .     S
Er352     Er358    10.001   .     S
Er353     Er354    9.999   .     S
Er353     Er355    10.001   .     S
Er353     Er366    10.001   .     S
Er354     V157    10.0   1_554     S
Er354     Er370    10.001   .     S
Er355     Er356    9.999   .     S
Er355     Er362    10.001   .     S
Er357     Er358    9.999   .     S
Er357     V340    10.0   1_545     S
Er357     Er367    10.001   .     S
Er357     Er359    10.001   .     S
Er359     Er360    9.999   .     S
Er359     V339    10.0   1_545     S
Er359     Er372    10.001   .     S
Er360     Er364    10.001   .     S
Er361     Er362    9.999   .     S
Er361     Er364    10.001   .     S
Er362     Er366    10.001   .     S
Er363     Er364    9.999   .     S
Er363     V329    10.0   1_455     S
Er363     Er371    10.001   .     S
Er363     Er365    10.001   .     S
Er365     Er366    9.999   .     S
Er365     V330    10.0   1_455     S
Er365     Er369    10.001   .     S
Er367     Er368    9.999   .     S
Er367     V373    10.0   1_545     S
Er367     Er372    10.001   .     S
Er368     V379    10.0   1_554     S
Er368     Er370    10.001   .     S
Er369     Er370    9.999   .     S
Er369     V381    10.0   1_455     S
Er369     Er371    10.001   .     S
Er370     V380    10.0   1_554     S
Er371     Er372    9.999   .     S
Er371     V382    10.0   1_455     S
Er372     V374    10.0   1_545     S
V373     Er367    10.0   1_565     S
V373     V374    9.999   .     S
V373     V378    9.999   1_554     S
V373     V379    10.001   1_564     S
V374     Er372    10.0   1_565     S
V374     V375    9.999   1_455     S
V374     V382    10.001   1_465     S
V375     Er14    10.0   1_554     S
V375     V376    9.999   .     S
V375     V374    9.999   1_655     S
V375     V378    10.001   1_654     S
V376     Er16    10.0   1_554     S
V376     V382    9.999   1_565     S
V376     V383    10.001   1_564     S
V377     Er18    10.0   1_455     S
V377     V378    9.999   .     S
V377     V379    9.999   1_565     S
V377     V384    10.001   1_465     S
V378     Er13    10.0   1_455     S
V378     V373    9.999   1_556     S
V378     V375    10.001   1_456     S
V379     Er368    10.0   1_556     S
V379     V377    9.999   1_545     S
V379     V380    9.999   .     S
V379     V373    10.001   1_546     S
V380     Er370    10.0   1_556     S
V380     V384    9.999   1_455     S
V380     V381    10.001   1_456     S
V381     Er369    10.0   1_655     S
V381     V382    9.999   .     S
V381     V383    9.999   1_554     S
V381     V380    10.001   1_654     S
V382     Er371    10.0   1_655     S
V382     V376    9.999   1_545     S
V382     V374    10.001   1_645     S
V383     Er15    10.0   1_545     S
V383     V384    9.999   .     S
V383     V381    9.999   1_556     S
V383     V376    10.001   1_546     S
V384     Er17    10.0   1_545     S
V384     V380    9.999   1_655     S
V384     V377    10.001   1_645     S
