data_baw
_audit_creation_date              2020-02-02
_audit_creation_method            'Pymatgen'
_symmetry_space_group_name_H-M    'P1'
_symmetry_Int_Tables_number       1
loop_
_symmetry_equiv_pos_as_xyz
  x,y,z
_cell_length_a                    71.3784
_cell_length_b                    71.3784
_cell_length_c                    71.3784
_cell_angle_alpha                 90.0
_cell_angle_beta                 90.0
_cell_angle_gamma                 90.0
loop_
_atom_site_label
_atom_site_type_symbol
_atom_site_fract_x
_atom_site_fract_y
_atom_site_fract_z
Er1     Er     0.57   0.2318   0.6691
Er2     Er     0.6691   0.2318   0.57
Er3     Er     0.7682   0.3309   0.57
Er4     Er     0.7682   0.43   0.6691
Er5     Er     0.57   0.3309   0.7682
Er6     Er     0.6691   0.43   0.7682
Er7     Er     0.93   0.2682   0.8309
Er8     Er     0.8309   0.2682   0.93
Er9     Er     0.7318   0.07   0.8309
Er10     Er     0.7318   0.1691   0.93
Er11     Er     0.8309   0.07   0.7318
Er12     Er     0.93   0.1691   0.7318
V13     V     0.75   0.3491   0.8491
V14     V     0.8491   0.3491   0.75
V15     V     0.6509   0.25   0.8491
V16     V     0.75   0.1509   0.6509
V17     V     0.6509   0.1509   0.75
V18     V     0.8491   0.25   0.6509
Er19     Er     0.3309   0.2318   0.57
Er20     Er     0.43   0.2318   0.6691
Er21     Er     0.2318   0.3309   0.57
Er22     Er     0.2318   0.43   0.6691
Er23     Er     0.3309   0.43   0.7682
Er24     Er     0.43   0.3309   0.7682
Er25     Er     0.2682   0.07   0.8309
Er26     Er     0.2682   0.1691   0.93
Er27     Er     0.07   0.2682   0.8309
Er28     Er     0.1691   0.2682   0.93
V29     V     0.1509   0.25   0.6509
V30     V     0.25   0.1509   0.6509
V31     V     0.3491   0.25   0.8491
V32     V     0.25   0.3491   0.8491
V33     V     0.1509   0.3491   0.75
V34     V     0.3491   0.1509   0.75
Er35     Er     0.1691   0.07   0.7318
Er36     Er     0.07   0.1691   0.7318
Er37     Er     0.2318   0.6691   0.57
Er38     Er     0.2318   0.57   0.6691
Er39     Er     0.3309   0.7682   0.57
Er40     Er     0.43   0.7682   0.6691
Er41     Er     0.3309   0.57   0.7682
Er42     Er     0.43   0.6691   0.7682
Er43     Er     0.2682   0.93   0.8309
Er44     Er     0.2682   0.8309   0.93
Er45     Er     0.07   0.8309   0.7318
Er46     Er     0.1691   0.93   0.7318
Er47     Er     0.07   0.7318   0.8309
Er48     Er     0.1691   0.7318   0.93
V49     V     0.25   0.8491   0.6509
V50     V     0.1509   0.6509   0.75
V51     V     0.1509   0.75   0.6509
V52     V     0.25   0.6509   0.8491
V53     V     0.3491   0.8491   0.75
V54     V     0.3491   0.75   0.8491
Er55     Er     0.7682   0.57   0.6691
Er56     Er     0.7682   0.6691   0.57
Er57     Er     0.57   0.6691   0.7682
Er58     Er     0.6691   0.57   0.7682
Er59     Er     0.6691   0.7682   0.57
Er60     Er     0.57   0.7682   0.6691
Er61     Er     0.7318   0.93   0.8309
Er62     Er     0.7318   0.8309   0.93
Er63     Er     0.93   0.7318   0.8309
Er64     Er     0.8309   0.7318   0.93
V65     V     0.8491   0.6509   0.75
V66     V     0.8491   0.75   0.6509
V67     V     0.6509   0.75   0.8491
V68     V     0.75   0.6509   0.8491
V69     V     0.75   0.8491   0.6509
V70     V     0.6509   0.8491   0.75
Er71     Er     0.8309   0.93   0.7318
Er72     Er     0.93   0.8309   0.7318
Er73     Er     0.2318   0.57   0.3309
Er74     Er     0.2318   0.6691   0.43
Er75     Er     0.3309   0.57   0.2318
Er76     Er     0.43   0.6691   0.2318
Er77     Er     0.43   0.7682   0.3309
Er78     Er     0.3309   0.7682   0.43
Er79     Er     0.07   0.8309   0.2682
Er80     Er     0.1691   0.93   0.2682
V81     V     0.25   0.6509   0.1509
V82     V     0.1509   0.6509   0.25
V83     V     0.3491   0.8491   0.25
V84     V     0.25   0.8491   0.3491
V85     V     0.3491   0.75   0.1509
V86     V     0.1509   0.75   0.3491
Er87     Er     0.07   0.7318   0.1691
Er88     Er     0.1691   0.7318   0.07
Er89     Er     0.2682   0.8309   0.07
Er90     Er     0.2682   0.93   0.1691
Er91     Er     0.6691   0.57   0.2318
Er92     Er     0.57   0.6691   0.2318
Er93     Er     0.7682   0.57   0.3309
Er94     Er     0.7682   0.6691   0.43
Er95     Er     0.57   0.7682   0.3309
Er96     Er     0.6691   0.7682   0.43
Er97     Er     0.93   0.8309   0.2682
Er98     Er     0.8309   0.93   0.2682
Er99     Er     0.8309   0.7318   0.07
Er100     Er     0.93   0.7318   0.1691
Er101     Er     0.7318   0.8309   0.07
Er102     Er     0.7318   0.93   0.1691
V103     V     0.6509   0.8491   0.25
V104     V     0.75   0.6509   0.1509
V105     V     0.6509   0.75   0.1509
V106     V     0.8491   0.6509   0.25
V107     V     0.8491   0.75   0.3491
V108     V     0.75   0.8491   0.3491
Er109     Er     0.57   0.2318   0.3309
Er110     Er     0.6691   0.2318   0.43
Er111     Er     0.57   0.3309   0.2318
Er112     Er     0.6691   0.43   0.2318
Er113     Er     0.7682   0.43   0.3309
Er114     Er     0.7682   0.3309   0.43
Er115     Er     0.8309   0.2682   0.07
Er116     Er     0.93   0.2682   0.1691
V117     V     0.6509   0.1509   0.25
V118     V     0.6509   0.25   0.1509
V119     V     0.8491   0.25   0.3491
V120     V     0.8491   0.3491   0.25
V121     V     0.75   0.1509   0.3491
V122     V     0.75   0.3491   0.1509
Er123     Er     0.7318   0.1691   0.07
Er124     Er     0.7318   0.07   0.1691
Er125     Er     0.8309   0.07   0.2682
Er126     Er     0.93   0.1691   0.2682
Er127     Er     0.3309   0.2318   0.43
Er128     Er     0.43   0.2318   0.3309
Er129     Er     0.2318   0.3309   0.43
Er130     Er     0.2318   0.43   0.3309
Er131     Er     0.3309   0.43   0.2318
Er132     Er     0.43   0.3309   0.2318
Er133     Er     0.1691   0.2682   0.07
Er134     Er     0.07   0.2682   0.1691
Er135     Er     0.2682   0.07   0.1691
Er136     Er     0.2682   0.1691   0.07
Er137     Er     0.07   0.1691   0.2682
Er138     Er     0.1691   0.07   0.2682
V139     V     0.3491   0.1509   0.25
V140     V     0.25   0.1509   0.3491
V141     V     0.25   0.3491   0.1509
V142     V     0.3491   0.25   0.1509
V143     V     0.1509   0.25   0.3491
V144     V     0.1509   0.3491   0.25
loop_
_geom_bond_atom_site_label_1
_geom_bond_atom_site_label_2
_geom_bond_distance
_geom_bond_site_symmetry_2
_ccdc_geom_bond_type
Er1     Er2    10.0   .     S
Er1     V17    10.0   .     S
Er1     Er20    10.0   .     S
Er1     Er5    10.001   .     S
Er2     V16    10.0   .     S
Er2     Er110    10.0   .     S
Er2     Er3    10.001   .     S
Er3     Er4    10.0   .     S
Er3     V18    10.0   .     S
Er3     Er114    10.0   .     S
Er4     V14    10.0   .     S
Er4     Er55    10.0   .     S
Er4     Er6    10.001   .     S
Er5     Er6    10.0   .     S
Er5     V15    10.0   .     S
Er5     Er24    10.0   .     S
Er6     V13    10.0   .     S
Er6     Er58    10.0   .     S
Er7     Er8    10.0   .     S
Er7     V14    10.0   .     S
Er7     Er27    10.0   1_655     S
Er7     Er12    10.001   .     S
Er8     V13    10.0   .     S
Er8     Er115    10.0   1_556     S
Er8     Er10    10.001   .     S
Er9     Er10    10.0   .     S
Er9     V17    10.0   .     S
Er9     Er61    10.0   1_545     S
Er9     Er11    10.001   .     S
Er10     V15    10.0   .     S
Er10     Er123    10.0   1_556     S
Er11     Er12    10.0   .     S
Er11     V16    10.0   .     S
Er11     Er71    10.0   1_545     S
Er12     V18    10.0   .     S
Er12     Er36    10.0   1_655     S
V13     V14    10.0   .     S
V13     V15    10.0   .     S
V14     V18    10.0   .     S
V15     V17    10.0   .     S
V16     V17    10.0   .     S
V16     V18    10.0   .     S
Er19     Er20    10.0   .     S
Er19     V30    10.0   .     S
Er19     Er127    10.0   .     S
Er19     Er21    10.001   .     S
Er20     V34    10.0   .     S
Er20     Er24    10.001   .     S
Er21     Er22    10.0   .     S
Er21     V29    10.0   .     S
Er21     Er129    10.0   .     S
Er22     V33    10.0   .     S
Er22     Er38    10.0   .     S
Er22     Er23    10.001   .     S
Er23     Er24    10.0   .     S
Er23     V32    10.0   .     S
Er23     Er41    10.0   .     S
Er24     V31    10.0   .     S
Er25     Er26    10.0   .     S
Er25     V34    10.0   .     S
Er25     Er43    10.0   1_545     S
Er25     Er35    10.001   .     S
Er26     V31    10.0   .     S
Er26     Er136    10.0   1_556     S
Er26     Er28    10.001   .     S
Er27     Er7    10.0   1_455     S
Er27     Er28    10.0   .     S
Er27     V33    10.0   .     S
Er27     Er36    10.001   .     S
Er28     V32    10.0   .     S
Er28     Er133    10.0   1_556     S
V29     V33    10.0   .     S
V29     V30    10.0   .     S
V29     Er36    10.0   .     S
V30     V34    10.0   .     S
V30     Er35    10.0   .     S
V31     V32    10.0   .     S
V31     V34    10.0   .     S
V32     V33    10.0   .     S
Er35     Er36    10.0   .     S
Er35     Er46    10.0   1_545     S
Er36     Er12    10.0   1_455     S
Er37     Er38    10.0   .     S
Er37     V51    10.0   .     S
Er37     Er74    10.0   .     S
Er37     Er39    10.001   .     S
Er38     V50    10.0   .     S
Er38     Er41    10.001   .     S
Er39     Er40    10.0   .     S
Er39     V49    10.0   .     S
Er39     Er78    10.0   .     S
Er40     V53    10.0   .     S
Er40     Er60    10.0   .     S
Er40     Er42    10.001   .     S
Er41     Er42    10.0   .     S
Er41     V52    10.0   .     S
Er42     V54    10.0   .     S
Er42     Er57    10.0   .     S
Er43     Er44    10.0   .     S
Er43     V53    10.0   .     S
Er43     Er25    10.0   1_565     S
Er43     Er46    10.001   .     S
Er44     V54    10.0   .     S
Er44     Er89    10.0   1_556     S
Er44     Er48    10.001   .     S
Er45     Er46    10.0   .     S
Er45     V51    10.0   .     S
Er45     Er72    10.0   1_455     S
Er45     Er47    10.001   .     S
Er46     V49    10.0   .     S
Er46     Er35    10.0   1_565     S
Er47     Er48    10.0   .     S
Er47     V50    10.0   .     S
Er47     Er63    10.0   1_455     S
Er48     V52    10.0   .     S
Er48     Er88    10.0   1_556     S
V49     V53    10.0   .     S
V49     V51    10.0   .     S
V50     V51    10.0   .     S
V50     V52    10.0   .     S
V52     V54    10.0   .     S
V53     V54    10.0   .     S
Er55     Er56    10.0   .     S
Er55     V65    10.0   .     S
Er55     Er58    10.001   .     S
Er56     V66    10.0   .     S
Er56     Er94    10.0   .     S
Er56     Er59    10.001   .     S
Er57     Er58    10.0   .     S
Er57     V67    10.0   .     S
Er57     Er60    10.001   .     S
Er58     V68    10.0   .     S
Er59     Er60    10.0   .     S
Er59     V69    10.0   .     S
Er59     Er96    10.0   .     S
Er60     V70    10.0   .     S
Er61     Er62    10.0   .     S
Er61     V70    10.0   .     S
Er61     Er9    10.0   1_565     S
Er61     Er71    10.001   .     S
Er62     V67    10.0   .     S
Er62     Er101    10.0   1_556     S
Er62     Er64    10.001   .     S
Er63     Er64    10.0   .     S
Er63     V65    10.0   .     S
Er63     Er47    10.0   1_655     S
Er63     Er72    10.001   .     S
Er64     V68    10.0   .     S
Er64     Er99    10.0   1_556     S
V65     V66    10.0   .     S
V65     V68    10.0   .     S
V66     V69    10.0   .     S
V66     Er72    10.0   .     S
V67     V68    10.0   .     S
V67     V70    10.0   .     S
V69     V70    10.0   .     S
V69     Er71    10.0   .     S
Er71     Er72    10.0   .     S
Er71     Er11    10.0   1_565     S
Er72     Er45    10.0   1_655     S
Er73     Er74    10.0   .     S
Er73     V82    10.0   .     S
Er73     Er130    10.0   .     S
Er73     Er75    10.001   .     S
Er74     V86    10.0   .     S
Er74     Er78    10.001   .     S
Er75     Er76    10.0   .     S
Er75     V81    10.0   .     S
Er75     Er131    10.0   .     S
Er76     V85    10.0   .     S
Er76     Er92    10.0   .     S
Er76     Er77    10.001   .     S
Er77     Er78    10.0   .     S
Er77     V83    10.0   .     S
Er77     Er95    10.0   .     S
Er78     V84    10.0   .     S
Er79     Er80    10.0   .     S
Er79     V86    10.0   .     S
Er79     Er97    10.0   1_455     S
Er79     Er87    10.001   .     S
Er80     V84    10.0   .     S
Er80     Er138    10.0   1_565     S
Er80     Er90    10.001   .     S
V81     V85    10.0   .     S
V81     V82    10.0   .     S
V81     Er88    10.0   .     S
V82     V86    10.0   .     S
V82     Er87    10.0   .     S
V83     V84    10.0   .     S
V83     V85    10.0   .     S
V83     Er90    10.0   .     S
V84     V86    10.0   .     S
V85     Er89    10.0   .     S
Er87     Er88    10.0   .     S
Er87     Er100    10.0   1_455     S
Er88     Er48    10.0   1_554     S
Er88     Er89    10.001   .     S
Er89     Er44    10.0   1_554     S
Er89     Er90    10.0   .     S
Er90     Er135    10.0   1_565     S
Er91     Er92    10.0   .     S
Er91     V104    10.0   .     S
Er91     Er112    10.0   .     S
Er91     Er93    10.001   .     S
Er92     V105    10.0   .     S
Er92     Er95    10.001   .     S
Er93     Er94    10.0   .     S
Er93     V106    10.0   .     S
Er93     Er113    10.0   .     S
Er94     V107    10.0   .     S
Er94     Er96    10.001   .     S
Er95     Er96    10.0   .     S
Er95     V103    10.0   .     S
Er96     V108    10.0   .     S
Er97     Er98    10.0   .     S
Er97     V107    10.0   .     S
Er97     Er79    10.0   1_655     S
Er97     Er100    10.001   .     S
Er98     V108    10.0   .     S
Er98     Er125    10.0   1_565     S
Er98     Er102    10.001   .     S
Er99     Er64    10.0   1_554     S
Er99     Er100    10.0   .     S
Er99     V104    10.0   .     S
Er99     Er101    10.001   .     S
Er100     V106    10.0   .     S
Er100     Er87    10.0   1_655     S
Er101     Er62    10.0   1_554     S
Er101     Er102    10.0   .     S
Er101     V105    10.0   .     S
Er102     V103    10.0   .     S
Er102     Er124    10.0   1_565     S
V103     V108    10.0   .     S
V103     V105    10.0   .     S
V104     V105    10.0   .     S
V104     V106    10.0   .     S
V106     V107    10.0   .     S
V107     V108    10.0   .     S
Er109     Er110    10.0   .     S
Er109     V117    10.0   .     S
Er109     Er128    10.0   .     S
Er109     Er111    10.001   .     S
Er110     V121    10.0   .     S
Er110     Er114    10.001   .     S
Er111     Er112    10.0   .     S
Er111     V118    10.0   .     S
Er111     Er132    10.0   .     S
Er112     V122    10.0   .     S
Er112     Er113    10.001   .     S
Er113     Er114    10.0   .     S
Er113     V120    10.0   .     S
Er114     V119    10.0   .     S
Er115     Er8    10.0   1_554     S
Er115     Er116    10.0   .     S
Er115     V122    10.0   .     S
Er115     Er123    10.001   .     S
Er116     V120    10.0   .     S
Er116     Er134    10.0   1_655     S
Er116     Er126    10.001   .     S
V117     V121    10.0   .     S
V117     V118    10.0   .     S
V117     Er124    10.0   .     S
V118     V122    10.0   .     S
V118     Er123    10.0   .     S
V119     V120    10.0   .     S
V119     V121    10.0   .     S
V119     Er126    10.0   .     S
V120     V122    10.0   .     S
V121     Er125    10.0   .     S
Er123     Er10    10.0   1_554     S
Er123     Er124    10.0   .     S
Er124     Er102    10.0   1_545     S
Er124     Er125    10.001   .     S
Er125     Er98    10.0   1_545     S
Er125     Er126    10.0   .     S
Er126     Er137    10.0   1_655     S
Er127     Er128    10.0   .     S
Er127     V140    10.0   .     S
Er127     Er129    10.001   .     S
Er128     V139    10.0   .     S
Er128     Er132    10.001   .     S
Er129     Er130    10.0   .     S
Er129     V143    10.0   .     S
Er130     V144    10.0   .     S
Er130     Er131    10.001   .     S
Er131     Er132    10.0   .     S
Er131     V141    10.0   .     S
Er132     V142    10.0   .     S
Er133     Er28    10.0   1_554     S
Er133     Er134    10.0   .     S
Er133     V141    10.0   .     S
Er133     Er136    10.001   .     S
Er134     Er116    10.0   1_455     S
Er134     V144    10.0   .     S
Er134     Er137    10.001   .     S
Er135     Er90    10.0   1_545     S
Er135     Er136    10.0   .     S
Er135     V139    10.0   .     S
Er135     Er138    10.001   .     S
Er136     Er26    10.0   1_554     S
Er136     V142    10.0   .     S
Er137     Er126    10.0   1_455     S
Er137     Er138    10.0   .     S
Er137     V143    10.0   .     S
Er138     Er80    10.0   1_545     S
Er138     V140    10.0   .     S
V139     V140    10.0   .     S
V139     V142    10.0   .     S
V140     V143    10.0   .     S
V141     V142    10.0   .     S
V141     V144    10.0   .     S
V143     V144    10.0   .     S
