data_bba
_audit_creation_date              2020-02-02
_audit_creation_method            'Pymatgen'
_symmetry_space_group_name_H-M    'P1'
_symmetry_Int_Tables_number       1
loop_
_symmetry_equiv_pos_as_xyz
  x,y,z
_cell_length_a                    37.5599
_cell_length_b                    37.5599
_cell_length_c                    16.1309
_cell_angle_alpha                 90.0
_cell_angle_beta                 90.0
_cell_angle_gamma                 120.0
loop_
_atom_site_label
_atom_site_type_symbol
_atom_site_fract_x
_atom_site_fract_y
_atom_site_fract_z
Er1     Er     0.8463   0.6926   0.5
Er2     Er     0.1537   0.3074   0.5
Er3     Er     0.8463   0.1537   0.5
Er4     Er     0.6926   0.8463   0.5
V5     V     0.4892   0.2446   0.0
V6     V     0.7554   0.2446   0.0
V7     V     0.7554   0.5108   0.0
Er8     Er     0.1537   0.8463   0.5
Er9     Er     0.3074   0.1537   0.5
V10     V     0.2446   0.4892   0.0
V11     V     0.2446   0.7554   0.0
V12     V     0.5108   0.7554   0.0
loop_
_geom_bond_atom_site_label_1
_geom_bond_atom_site_label_2
_geom_bond_distance
_geom_bond_site_symmetry_2
_ccdc_geom_bond_type
Er1     Er4    10.0   .     S
Er1     V7    10.0   .     S
Er1     V7    10.0   1_556     S
Er1     Er8    10.0   1_655     S
Er2     Er9    10.0   .     S
Er2     Er3    10.0   1_455     S
Er2     V10    10.0   .     S
Er2     V10    10.0   1_556     S
Er3     Er4    10.0   1_545     S
Er3     Er2    10.0   1_655     S
Er3     V6    10.0   1_556     S
Er3     V6    10.0   .     S
Er4     Er3    10.0   1_565     S
Er4     V12    10.0   .     S
Er4     V12    10.0   1_556     S
V5     V6    10.0   .     S
V5     V7    10.0   .     S
V5     Er9    10.0   1_554     S
V5     Er9    10.0   .     S
V6     V7    10.0   .     S
V6     Er3    10.0   1_554     S
V7     Er1    10.0   1_554     S
Er8     Er9    10.0   1_565     S
Er8     Er1    10.0   1_455     S
Er8     V11    10.0   .     S
Er8     V11    10.0   1_556     S
Er9     V5    10.0   1_556     S
Er9     Er8    10.0   1_545     S
V10     V11    10.0   .     S
V10     V12    10.0   .     S
V10     Er2    10.0   1_554     S
V11     V12    10.0   .     S
V11     Er8    10.0   1_554     S
V12     Er4    10.0   1_554     S
