data_bbj
_audit_creation_date              2020-02-02
_audit_creation_method            'Pymatgen'
_symmetry_space_group_name_H-M    'P1'
_symmetry_Int_Tables_number       1
loop_
_symmetry_equiv_pos_as_xyz
  x,y,z
_cell_length_a                    33.0742
_cell_length_b                    22.8059
_cell_length_c                    28.5034
_cell_angle_alpha                 90.0
_cell_angle_beta                 90.0
_cell_angle_gamma                 90.0
loop_
_atom_site_label
_atom_site_type_symbol
_atom_site_fract_x
_atom_site_fract_y
_atom_site_fract_z
Er1     Er     0.9012   0.1659   0.0
Er2     Er     0.5988   0.1659   0.0
V3     V     0.5   0.0   0.3038
Er4     Er     0.0988   0.8341   0.0
Er5     Er     0.4012   0.8341   0.0
V6     V     0.0   0.0   0.3038
V7     V     0.5   0.5   0.8038
Er8     Er     0.0988   0.3341   0.5
Er9     Er     0.4012   0.3341   0.5
Er10     Er     0.9012   0.6659   0.5
Er11     Er     0.5988   0.6659   0.5
V12     V     0.0   0.5   0.8038
loop_
_geom_bond_atom_site_label_1
_geom_bond_atom_site_label_2
_geom_bond_distance
_geom_bond_site_symmetry_2
_ccdc_geom_bond_type
Er1     Er2    10.0   .     S
Er1     V12    10.0   1_654     S
Er1     V6    10.0   1_655     S
Er1     Er4    10.0   1_645     S
Er2     V7    10.0   1_554     S
Er2     V3    10.0   .     S
Er2     Er5    10.0   1_545     S
V3     Er5    10.0   1_545     S
V3     Er9    10.0   .     S
V3     Er11    10.0   1_545     S
Er4     Er5    10.0   .     S
Er4     V12    10.0   1_554     S
Er4     V6    10.0   1_565     S
Er4     Er1    10.0   1_465     S
Er5     V3    10.0   1_565     S
Er5     Er2    10.0   1_565     S
Er5     V7    10.0   1_554     S
V6     Er4    10.0   1_545     S
V6     Er1    10.0   1_455     S
V6     Er8    10.0   .     S
V6     Er10    10.0   1_445     S
V7     Er2    10.0   1_556     S
V7     Er5    10.0   1_556     S
V7     Er9    10.0   .     S
V7     Er11    10.0   .     S
Er8     Er9    10.0   .     S
Er8     V12    10.0   .     S
Er8     Er10    10.0   1_455     S
Er9     Er11    10.0   .     S
Er10     Er11    10.0   .     S
Er10     V6    10.0   1_665     S
Er10     V12    10.0   1_655     S
Er10     Er8    10.0   1_655     S
Er11     V3    10.0   1_565     S
V12     Er1    10.0   1_456     S
V12     Er4    10.0   1_556     S
V12     Er10    10.0   1_455     S
