data_bby
_audit_creation_date              2020-02-02
_audit_creation_method            'Pymatgen'
_symmetry_space_group_name_H-M    'P1'
_symmetry_Int_Tables_number       1
loop_
_symmetry_equiv_pos_as_xyz
  x,y,z
_cell_length_a                    72.7802
_cell_length_b                    72.7802
_cell_length_c                    23.5622
_cell_angle_alpha                 90.0
_cell_angle_beta                 90.0
_cell_angle_gamma                 120.0
loop_
_atom_site_label
_atom_site_type_symbol
_atom_site_fract_x
_atom_site_fract_y
_atom_site_fract_z
Er1     Er     0.6667   0.4707   0.7122
Er2     Er     0.5293   0.3333   0.7122
Er3     Er     0.6667   0.4707   0.2878
Er4     Er     0.5293   0.3333   0.2878
V5     V     0.6084   0.529   0.0
V6     V     0.471   0.3916   0.0
Er7     Er     0.6667   0.1959   0.7122
Er8     Er     0.6667   0.1959   0.2878
V9     V     0.6084   0.0793   0.0
Er10     Er     0.5293   0.1959   0.7122
Er11     Er     0.5293   0.1959   0.2878
V12     V     0.471   0.0793   0.0
Er13     Er     0.8041   0.4707   0.7122
Er14     Er     0.8041   0.3333   0.7122
Er15     Er     0.8041   0.4707   0.2878
Er16     Er     0.8041   0.3333   0.2878
V17     V     0.9207   0.3916   0.0
V18     V     0.9207   0.529   0.0
Er19     Er     0.4707   0.6667   0.7122
Er20     Er     0.3333   0.5293   0.7122
Er21     Er     0.4707   0.6667   0.2878
Er22     Er     0.3333   0.5293   0.2878
V23     V     0.529   0.6084   0.0
V24     V     0.3916   0.471   0.0
Er25     Er     0.3333   0.8041   0.7122
Er26     Er     0.4707   0.8041   0.7122
Er27     Er     0.3333   0.8041   0.2878
Er28     Er     0.4707   0.8041   0.2878
V29     V     0.3916   0.9207   0.0
V30     V     0.529   0.9207   0.0
Er31     Er     0.1959   0.5293   0.7122
Er32     Er     0.1959   0.5293   0.2878
V33     V     0.0793   0.471   0.0
Er34     Er     0.1959   0.6667   0.7122
Er35     Er     0.1959   0.6667   0.2878
V36     V     0.0793   0.6084   0.0
loop_
_geom_bond_atom_site_label_1
_geom_bond_atom_site_label_2
_geom_bond_distance
_geom_bond_site_symmetry_2
_ccdc_geom_bond_type
Er1     Er13    10.001   .     S
Er1     Er2    9.999   .     S
Er1     V5    10.0   1_556     S
Er1     Er3    10.0   .     S
Er2     V6    10.0   1_556     S
Er2     Er10    10.001   .     S
Er2     Er4    10.0   .     S
Er3     Er15    10.001   .     S
Er3     Er4    9.999   .     S
Er3     V5    10.0   .     S
Er4     V6    10.0   .     S
Er4     Er11    10.001   .     S
V5     V6    10.001   .     S
V5     Er1    10.0   1_554     S
V5     V23    10.0   .     S
V6     Er2    10.0   1_554     S
V6     V24    10.0   .     S
Er7     Er14    10.001   .     S
Er7     Er10    9.999   .     S
Er7     V9    10.0   1_556     S
Er7     Er8    10.0   .     S
Er8     Er16    10.001   .     S
Er8     V9    10.0   .     S
Er8     Er11    9.999   .     S
V9     Er7    10.0   1_554     S
V9     V12    10.001   .     S
V9     V30    10.0   1_545     S
Er10     V12    10.0   1_556     S
Er10     Er11    10.0   .     S
Er11     V12    10.0   .     S
V12     Er10    10.0   1_554     S
V12     V29    10.0   1_545     S
Er13     Er14    9.999   .     S
Er13     V18    10.0   1_556     S
Er13     Er15    10.0   .     S
Er14     V17    10.0   1_556     S
Er14     Er16    10.0   .     S
Er15     Er16    9.999   .     S
Er15     V18    10.0   .     S
Er16     V17    10.0   .     S
V17     Er14    10.0   1_554     S
V17     V18    10.001   .     S
V17     V33    10.0   1_655     S
V18     Er13    10.0   1_554     S
V18     V36    10.0   1_655     S
Er19     Er20    9.999   .     S
Er19     V23    10.0   1_556     S
Er19     Er26    10.001   .     S
Er19     Er21    10.0   .     S
Er20     V24    10.0   1_556     S
Er20     Er31    10.001   .     S
Er20     Er22    10.0   .     S
Er21     Er22    9.999   .     S
Er21     V23    10.0   .     S
Er21     Er28    10.001   .     S
Er22     V24    10.0   .     S
Er22     Er32    10.001   .     S
V23     V24    10.001   .     S
V23     Er19    10.0   1_554     S
V24     Er20    10.0   1_554     S
Er25     Er34    10.001   .     S
Er25     Er26    9.999   .     S
Er25     V29    10.0   1_556     S
Er25     Er27    10.0   .     S
Er26     V30    10.0   1_556     S
Er26     Er28    10.0   .     S
Er27     Er35    10.001   .     S
Er27     Er28    9.999   .     S
Er27     V29    10.0   .     S
Er28     V30    10.0   .     S
V29     Er25    10.0   1_554     S
V29     V30    10.001   .     S
V29     V12    10.0   1_565     S
V30     Er26    10.0   1_554     S
V30     V9    10.0   1_565     S
Er31     Er34    9.999   .     S
Er31     V33    10.0   1_556     S
Er31     Er32    10.0   .     S
Er32     V33    10.0   .     S
Er32     Er35    9.999   .     S
V33     V17    10.0   1_455     S
V33     Er31    10.0   1_554     S
V33     V36    10.001   .     S
Er34     V36    10.0   1_556     S
Er34     Er35    10.0   .     S
Er35     V36    10.0   .     S
V36     V18    10.0   1_455     S
V36     Er34    10.0   1_554     S
