data_bcuxa
_audit_creation_date              2020-02-02
_audit_creation_method            'Pymatgen'
_symmetry_space_group_name_H-M    'P1'
_symmetry_Int_Tables_number       1
loop_
_symmetry_equiv_pos_as_xyz
  x,y,z
_cell_length_a                    33.5635
_cell_length_b                    33.5635
_cell_length_c                    33.5635
_cell_angle_alpha                 90.0
_cell_angle_beta                 90.0
_cell_angle_gamma                 90.0
loop_
_atom_site_label
_atom_site_type_symbol
_atom_site_fract_x
_atom_site_fract_y
_atom_site_fract_z
Er1     Er     0.336   0.336   0.336
Er2     Er     0.164   0.164   0.164
Er3     Er     0.836   0.164   0.164
Er4     Er     0.664   0.336   0.336
Er5     Er     0.164   0.836   0.164
Er6     Er     0.336   0.664   0.336
Er7     Er     0.164   0.164   0.836
Er8     Er     0.336   0.336   0.664
Er9     Er     0.836   0.836   0.164
Er10     Er     0.664   0.664   0.336
Er11     Er     0.836   0.164   0.836
Er12     Er     0.664   0.336   0.664
Er13     Er     0.164   0.836   0.836
Er14     Er     0.336   0.664   0.664
V15     V     0.5   0.149   0.5
V16     V     0.5   0.851   0.5
V17     V     0.149   0.5   0.5
V18     V     0.851   0.5   0.5
V19     V     0.5   0.5   0.149
V20     V     0.5   0.5   0.851
V21     V     0.0   0.351   0.0
V22     V     0.0   0.649   0.0
V23     V     0.351   0.0   0.0
V24     V     0.649   0.0   0.0
V25     V     0.0   0.0   0.351
V26     V     0.0   0.0   0.649
Er27     Er     0.836   0.836   0.836
Er28     Er     0.664   0.664   0.664
loop_
_geom_bond_atom_site_label_1
_geom_bond_atom_site_label_2
_geom_bond_distance
_geom_bond_site_symmetry_2
_ccdc_geom_bond_type
Er1     V19    10.0   .     S
Er1     V15    10.0   .     S
Er1     V17    10.0   .     S
Er1     Er2    10.0   .     S
Er2     V25    10.0   .     S
Er2     V23    10.0   .     S
Er2     V21    10.0   .     S
Er3     V25    10.0   1_655     S
Er3     V21    10.0   1_655     S
Er3     V24    10.0   .     S
Er3     Er4    10.0   .     S
Er4     V19    10.0   .     S
Er4     V15    10.0   .     S
Er4     V18    10.0   .     S
Er5     V25    10.0   1_565     S
Er5     V23    10.0   1_565     S
Er5     V22    10.0   .     S
Er5     Er6    10.0   .     S
Er6     V19    10.0   .     S
Er6     V17    10.0   .     S
Er6     V16    10.0   .     S
Er7     V21    10.0   1_556     S
Er7     V23    10.0   1_556     S
Er7     V26    10.0   .     S
Er7     Er8    10.0   .     S
Er8     V17    10.0   .     S
Er8     V15    10.0   .     S
Er8     V20    10.0   .     S
Er9     V25    10.0   1_665     S
Er9     V24    10.0   1_565     S
Er9     V22    10.0   1_655     S
Er9     Er10    10.0   .     S
Er10     V19    10.0   .     S
Er10     V16    10.0   .     S
Er10     V18    10.0   .     S
Er11     V21    10.0   1_656     S
Er11     V26    10.0   1_655     S
Er11     V24    10.0   1_556     S
Er11     Er12    10.0   .     S
Er12     V15    10.0   .     S
Er12     V20    10.0   .     S
Er12     V18    10.0   .     S
Er13     V23    10.0   1_566     S
Er13     V26    10.0   1_565     S
Er13     V22    10.0   1_556     S
Er13     Er14    10.0   .     S
Er14     V17    10.0   .     S
Er14     V20    10.0   .     S
Er14     V16    10.0   .     S
V15     V16    10.0   1_545     S
V16     V15    10.0   1_565     S
V16     Er28    10.0   .     S
V17     V18    10.0   1_455     S
V18     V17    10.0   1_655     S
V18     Er28    10.0   .     S
V19     V20    10.0   1_554     S
V20     V19    10.0   1_556     S
V20     Er28    10.0   .     S
V21     Er3    10.0   1_455     S
V21     Er7    10.0   1_554     S
V21     Er11    10.0   1_454     S
V21     V22    10.0   .     S
V22     Er9    10.0   1_455     S
V22     Er13    10.0   1_554     S
V22     Er27    10.0   1_454     S
V23     Er5    10.0   1_545     S
V23     Er7    10.0   1_554     S
V23     Er13    10.0   1_544     S
V23     V24    10.0   .     S
V24     Er9    10.0   1_545     S
V24     Er11    10.0   1_554     S
V24     Er27    10.0   1_544     S
V25     Er3    10.0   1_455     S
V25     Er5    10.0   1_545     S
V25     Er9    10.0   1_445     S
V25     V26    10.0   .     S
V26     Er11    10.0   1_455     S
V26     Er13    10.0   1_545     S
V26     Er27    10.0   1_445     S
Er27     V26    10.0   1_665     S
Er27     V22    10.0   1_656     S
Er27     V24    10.0   1_566     S
Er27     Er28    10.0   .     S
