data_bmn
_audit_creation_date              2020-02-02
_audit_creation_method            'Pymatgen'
_symmetry_space_group_name_H-M    'P1'
_symmetry_Int_Tables_number       1
loop_
_symmetry_equiv_pos_as_xyz
  x,y,z
_cell_length_a                    39.9999
_cell_length_b                    39.9999
_cell_length_c                    39.9999
_cell_angle_alpha                 90.0
_cell_angle_beta                 90.0
_cell_angle_gamma                 90.0
loop_
_atom_site_label
_atom_site_type_symbol
_atom_site_fract_x
_atom_site_fract_y
_atom_site_fract_z
V1     V     0.75   0.5   0.25
V2     V     0.75   0.75   0.5
V3     V     0.5   0.75   0.75
V4     V     0.75   0.5   0.75
V5     V     0.5   0.25   0.75
V6     V     0.75   0.25   0.0
V7     V     0.25   0.0   0.75
V8     V     0.25   0.75   0.5
V9     V     0.0   0.75   0.25
V10     V     0.0   0.25   0.25
V11     V     0.0   0.25   0.0
V12     V     0.0   0.5   0.25
V13     V     0.0   0.75   0.5
V14     V     0.0   0.0   0.25
V15     V     0.25   0.0   0.25
V16     V     0.25   0.0   0.5
V17     V     0.5   0.0   0.75
V18     V     0.25   0.0   0.0
V19     V     0.25   0.25   0.0
V20     V     0.5   0.25   0.0
V21     V     0.75   0.5   0.0
V22     V     0.5   0.5   0.75
V23     V     0.5   0.75   0.5
V24     V     0.75   0.5   0.5
loop_
_geom_bond_atom_site_label_1
_geom_bond_atom_site_label_2
_geom_bond_distance
_geom_bond_site_symmetry_2
_ccdc_geom_bond_type
V1     V12    10.0   1_655     S
V1     V21    10.0   .     S
V1     V24    10.0   .     S
V2     V13    10.0   1_655     S
V2     V23    10.0   .     S
V2     V24    10.0   .     S
V3     V17    10.0   1_565     S
V3     V22    10.0   .     S
V3     V23    10.0   .     S
V4     V21    10.0   1_556     S
V4     V22    10.0   .     S
V4     V24    10.0   .     S
V5     V20    10.0   1_556     S
V5     V17    10.0   .     S
V5     V22    10.0   .     S
V6     V11    10.0   1_655     S
V6     V20    10.0   .     S
V6     V21    10.0   .     S
V7     V18    10.0   1_556     S
V7     V16    10.0   .     S
V7     V17    10.0   .     S
V8     V16    10.0   1_565     S
V8     V13    10.0   .     S
V8     V23    10.0   .     S
V9     V14    10.0   1_565     S
V9     V12    10.0   .     S
V9     V13    10.0   .     S
V10     V11    10.0   .     S
V10     V12    10.0   .     S
V10     V14    10.0   .     S
V11     V6    10.0   1_455     S
V11     V19    10.0   .     S
V12     V1    10.0   1_455     S
V13     V2    10.0   1_455     S
V14     V9    10.0   1_545     S
V14     V15    10.0   .     S
V15     V16    10.0   .     S
V15     V18    10.0   .     S
V16     V8    10.0   1_545     S
V17     V3    10.0   1_545     S
V18     V7    10.0   1_554     S
V18     V19    10.0   .     S
V19     V20    10.0   .     S
V20     V5    10.0   1_554     S
V21     V4    10.0   1_554     S
