data_bod
_audit_creation_date              2020-02-02
_audit_creation_method            'Pymatgen'
_symmetry_space_group_name_H-M    'P1'
_symmetry_Int_Tables_number       1
loop_
_symmetry_equiv_pos_as_xyz
  x,y,z
_cell_length_a                    34.4949
_cell_length_b                    34.4949
_cell_length_c                    34.4949
_cell_angle_alpha                 90.0
_cell_angle_beta                 90.0
_cell_angle_gamma                 90.0
loop_
_atom_site_label
_atom_site_type_symbol
_atom_site_fract_x
_atom_site_fract_y
_atom_site_fract_z
Er1     Er     0.1184   0.1184   0.1184
Er2     Er     0.8816   0.8816   0.1184
V3     V     0.355   0.0   0.0
V4     V     0.645   0.0   0.0
Er5     Er     0.8816   0.1184   0.8816
V6     V     0.0   0.355   0.0
V7     V     0.0   0.645   0.0
Er8     Er     0.1184   0.8816   0.8816
V9     V     0.0   0.0   0.355
V10     V     0.0   0.0   0.645
loop_
_geom_bond_atom_site_label_1
_geom_bond_atom_site_label_2
_geom_bond_distance
_geom_bond_site_symmetry_2
_ccdc_geom_bond_type
Er1     V9    10.0   .     S
Er1     V3    10.0   .     S
Er1     V6    10.0   .     S
Er2     V9    10.0   1_665     S
Er2     V4    10.0   1_565     S
Er2     V7    10.0   1_655     S
V3     V4    10.0   .     S
V3     Er8    10.0   1_544     S
V4     Er2    10.0   1_545     S
V4     Er5    10.0   1_554     S
Er5     V6    10.0   1_656     S
Er5     V10    10.0   1_655     S
Er5     V4    10.0   1_556     S
V6     Er5    10.0   1_454     S
V6     V7    10.0   .     S
V7     Er2    10.0   1_455     S
V7     Er8    10.0   1_554     S
Er8     V3    10.0   1_566     S
Er8     V10    10.0   1_565     S
Er8     V7    10.0   1_556     S
V9     Er2    10.0   1_445     S
V9     V10    10.0   .     S
V10     Er5    10.0   1_455     S
V10     Er8    10.0   1_545     S
