data_bon
_audit_creation_date              2020-02-02
_audit_creation_method            'Pymatgen'
_symmetry_space_group_name_H-M    'P1'
_symmetry_Int_Tables_number       1
loop_
_symmetry_equiv_pos_as_xyz
  x,y,z
_cell_length_a                    38.7596
_cell_length_b                    38.7596
_cell_length_c                    38.7596
_cell_angle_alpha                 90.0
_cell_angle_beta                 90.0
_cell_angle_gamma                 90.0
loop_
_atom_site_label
_atom_site_type_symbol
_atom_site_fract_x
_atom_site_fract_y
_atom_site_fract_z
Er1     Er     0.0   0.5   0.25
Er2     Er     0.5   0.0   0.25
Er3     Er     0.25   0.0   0.5
Er4     Er     0.0   0.25   0.5
Er5     Er     0.5   0.25   0.0
Er6     Er     0.25   0.5   0.0
Er7     Er     0.5   0.0   0.75
Er8     Er     0.75   0.5   0.0
Er9     Er     0.0   0.75   0.5
Er10     Er     0.0   0.5   0.75
Er11     Er     0.5   0.75   0.0
V12     V     0.8113   0.3714   0.6286
V13     V     0.6286   0.3714   0.8113
V14     V     0.6286   0.1887   0.6286
V15     V     0.8714   0.1286   0.6887
V16     V     0.6887   0.1286   0.8714
V17     V     0.8714   0.3113   0.8714
V18     V     0.3714   0.1887   0.6286
V19     V     0.1887   0.3714   0.6286
V20     V     0.3714   0.3714   0.8113
V21     V     0.1286   0.3113   0.8714
V22     V     0.1286   0.1286   0.6887
V23     V     0.3113   0.1286   0.8714
V24     V     0.6286   0.8113   0.6286
V25     V     0.8113   0.6286   0.6286
V26     V     0.6286   0.6286   0.8113
V27     V     0.8714   0.8714   0.6887
V28     V     0.8714   0.6887   0.8714
V29     V     0.6887   0.8714   0.8714
V30     V     0.3714   0.8113   0.6286
V31     V     0.3714   0.6286   0.8113
V32     V     0.1887   0.6286   0.6286
V33     V     0.1286   0.8714   0.6887
V34     V     0.1286   0.6887   0.8714
V35     V     0.3113   0.8714   0.8714
V36     V     0.1887   0.6286   0.3714
V37     V     0.3714   0.6286   0.1887
V38     V     0.3714   0.8113   0.3714
V39     V     0.1286   0.6887   0.1286
V40     V     0.1286   0.8714   0.3113
V41     V     0.3113   0.8714   0.1286
V42     V     0.8113   0.6286   0.3714
V43     V     0.6286   0.8113   0.3714
V44     V     0.6286   0.6286   0.1887
V45     V     0.6887   0.8714   0.1286
V46     V     0.8714   0.6887   0.1286
V47     V     0.8714   0.8714   0.3113
V48     V     0.1887   0.3714   0.3714
V49     V     0.3714   0.3714   0.1887
V50     V     0.3714   0.1887   0.3714
V51     V     0.1286   0.1286   0.3113
V52     V     0.3113   0.1286   0.1286
V53     V     0.1286   0.3113   0.1286
V54     V     0.6286   0.3714   0.1887
V55     V     0.6286   0.1887   0.3714
V56     V     0.8113   0.3714   0.3714
V57     V     0.6887   0.1286   0.1286
V58     V     0.8714   0.1286   0.3113
V59     V     0.8714   0.3113   0.1286
Er60     Er     0.75   0.0   0.5
loop_
_geom_bond_atom_site_label_1
_geom_bond_atom_site_label_2
_geom_bond_distance
_geom_bond_site_symmetry_2
_ccdc_geom_bond_type
Er1     V53    10.024   .     S
Er1     V48    10.024   .     S
Er1     V39    10.024   .     S
Er1     V36    10.024   .     S
Er1     V46    10.024   1_455     S
Er1     V42    10.024   1_455     S
Er1     V59    10.024   1_455     S
Er1     V56    10.024   1_455     S
Er2     V57    10.024   .     S
Er2     V55    10.024   .     S
Er2     V52    10.024   .     S
Er2     V50    10.024   .     S
Er2     V41    10.024   1_545     S
Er2     V38    10.024   1_545     S
Er2     V45    10.024   1_545     S
Er2     V43    10.024   1_545     S
Er3     V51    10.024   .     S
Er3     V50    10.024   .     S
Er3     V22    10.024   .     S
Er3     V18    10.024   .     S
Er3     V33    10.024   1_545     S
Er3     V30    10.024   1_545     S
Er3     V40    10.024   1_545     S
Er3     V38    10.024   1_545     S
Er4     V22    10.024   .     S
Er4     V19    10.024   .     S
Er4     V51    10.024   .     S
Er4     V48    10.024   .     S
Er4     V58    10.024   1_455     S
Er4     V56    10.024   1_455     S
Er4     V15    10.024   1_455     S
Er4     V12    10.024   1_455     S
Er5     V52    10.024   .     S
Er5     V49    10.024   .     S
Er5     V57    10.024   .     S
Er5     V54    10.024   .     S
Er5     V16    10.024   1_554     S
Er5     V13    10.024   1_554     S
Er5     V23    10.024   1_554     S
Er5     V20    10.024   1_554     S
Er6     V39    10.024   .     S
Er6     V37    10.024   .     S
Er6     V53    10.024   .     S
Er6     V49    10.024   .     S
Er6     V21    10.024   1_554     S
Er6     V20    10.024   1_554     S
Er6     V34    10.024   1_554     S
Er6     V31    10.024   1_554     S
Er7     V16    10.024   .     S
Er7     V14    10.024   .     S
Er7     V23    10.024   .     S
Er7     V18    10.024   .     S
Er7     V29    10.024   1_545     S
Er7     V24    10.024   1_545     S
Er7     V35    10.024   1_545     S
Er7     V30    10.024   1_545     S
Er8     V46    10.024   .     S
Er8     V44    10.024   .     S
Er8     V59    10.024   .     S
Er8     V54    10.024   .     S
Er8     V28    10.024   1_554     S
Er8     V26    10.024   1_554     S
Er8     V17    10.024   1_554     S
Er8     V13    10.024   1_554     S
Er9     V33    10.024   .     S
Er9     V32    10.024   .     S
Er9     V40    10.024   .     S
Er9     V36    10.024   .     S
Er9     V27    10.024   1_455     S
Er9     V25    10.024   1_455     S
Er9     V47    10.024   1_455     S
Er9     V42    10.024   1_455     S
Er10     V34    10.024   .     S
Er10     V32    10.024   .     S
Er10     V21    10.024   .     S
Er10     V19    10.024   .     S
Er10     V17    10.024   1_455     S
Er10     V12    10.024   1_455     S
Er10     V28    10.024   1_455     S
Er10     V25    10.024   1_455     S
Er11     V45    10.024   .     S
Er11     V44    10.024   .     S
Er11     V41    10.024   .     S
Er11     V37    10.024   .     S
Er11     V35    10.024   1_554     S
Er11     V31    10.024   1_554     S
Er11     V29    10.024   1_554     S
Er11     V26    10.024   1_554     S
V12     Er4    10.024   1_655     S
V12     Er10    10.024   1_655     S
V12     V14    10.013   .     S
V12     V13    10.013   .     S
V12     V15    9.968   .     S
V12     V17    9.968   .     S
V12     V56    9.971   .     S
V12     V25    9.971   .     S
V13     Er5    10.024   1_556     S
V13     Er8    10.024   1_556     S
V13     V14    10.013   .     S
V13     V16    9.968   .     S
V13     V17    9.968   .     S
V13     V26    9.971   .     S
V13     V20    9.971   .     S
V14     Er60    10.024   .     S
V14     V16    9.968   .     S
V14     V15    9.968   .     S
V14     V55    9.971   .     S
V14     V18    9.971   .     S
V15     Er4    10.024   1_655     S
V15     V17    10.013   .     S
V15     V16    10.013   .     S
V15     Er60    10.024   .     S
V15     V27    9.971   1_545     S
V15     V22    9.971   1_655     S
V16     Er5    10.024   1_556     S
V16     V17    10.013   .     S
V16     V29    9.971   1_545     S
V16     V57    9.971   1_556     S
V17     Er8    10.024   1_556     S
V17     Er10    10.024   1_655     S
V17     V21    9.971   1_655     S
V17     V59    9.971   1_556     S
V18     V20    10.013   .     S
V18     V19    10.013   .     S
V18     V22    9.968   .     S
V18     V23    9.968   .     S
V18     V50    9.971   .     S
V19     V20    10.013   .     S
V19     V22    9.968   .     S
V19     V21    9.968   .     S
V19     V48    9.971   .     S
V19     V32    9.971   .     S
V20     Er5    10.024   1_556     S
V20     Er6    10.024   1_556     S
V20     V21    9.968   .     S
V20     V23    9.968   .     S
V20     V31    9.971   .     S
V21     Er6    10.024   1_556     S
V21     V22    10.013   .     S
V21     V23    10.013   .     S
V21     V17    9.971   1_455     S
V21     V53    9.971   1_556     S
V22     V23    10.013   .     S
V22     V33    9.971   1_545     S
V22     V15    9.971   1_455     S
V23     Er5    10.024   1_556     S
V23     V35    9.971   1_545     S
V23     V52    9.971   1_556     S
V24     Er7    10.024   1_565     S
V24     V25    10.013   .     S
V24     V26    10.013   .     S
V24     Er60    10.024   1_565     S
V24     V27    9.968   .     S
V24     V29    9.968   .     S
V24     V43    9.971   .     S
V24     V30    9.971   .     S
V25     Er9    10.024   1_655     S
V25     Er10    10.024   1_655     S
V25     V26    10.013   .     S
V25     V27    9.968   .     S
V25     V28    9.968   .     S
V25     V42    9.971   .     S
V26     Er8    10.024   1_556     S
V26     Er11    10.024   1_556     S
V26     V29    9.968   .     S
V26     V28    9.968   .     S
V26     V31    9.971   .     S
V27     Er9    10.024   1_655     S
V27     V29    10.013   .     S
V27     V28    10.013   .     S
V27     Er60    10.024   1_565     S
V27     V15    9.971   1_565     S
V27     V33    9.971   1_655     S
V28     Er8    10.024   1_556     S
V28     Er10    10.024   1_655     S
V28     V29    10.013   .     S
V28     V34    9.971   1_655     S
V28     V46    9.971   1_556     S
V29     Er7    10.024   1_565     S
V29     Er11    10.024   1_556     S
V29     V16    9.971   1_565     S
V29     V45    9.971   1_556     S
V30     Er3    10.024   1_565     S
V30     Er7    10.024   1_565     S
V30     V31    10.013   .     S
V30     V32    10.013   .     S
V30     V35    9.968   .     S
V30     V33    9.968   .     S
V30     V38    9.971   .     S
V31     Er6    10.024   1_556     S
V31     Er11    10.024   1_556     S
V31     V32    10.013   .     S
V31     V34    9.968   .     S
V31     V35    9.968   .     S
V32     V33    9.968   .     S
V32     V34    9.968   .     S
V32     V36    9.971   .     S
V33     Er3    10.024   1_565     S
V33     V35    10.013   .     S
V33     V34    10.013   .     S
V33     V22    9.971   1_565     S
V33     V27    9.971   1_455     S
V34     Er6    10.024   1_556     S
V34     V35    10.013   .     S
V34     V28    9.971   1_455     S
V34     V39    9.971   1_556     S
V35     Er7    10.024   1_565     S
V35     Er11    10.024   1_556     S
V35     V23    9.971   1_565     S
V35     V41    9.971   1_556     S
V36     V38    10.013   .     S
V36     V37    10.013   .     S
V36     V39    9.968   .     S
V36     V40    9.968   .     S
V36     V48    9.971   .     S
V37     V38    10.013   .     S
V37     V39    9.968   .     S
V37     V41    9.968   .     S
V37     V44    9.971   .     S
V37     V49    9.971   .     S
V38     Er2    10.024   1_565     S
V38     Er3    10.024   1_565     S
V38     V40    9.968   .     S
V38     V41    9.968   .     S
V38     V43    9.971   .     S
V39     V40    10.013   .     S
V39     V41    10.013   .     S
V39     V34    9.971   1_554     S
V39     V46    9.971   1_455     S
V40     Er3    10.024   1_565     S
V40     V41    10.013   .     S
V40     V47    9.971   1_455     S
V40     V51    9.971   1_565     S
V41     Er2    10.024   1_565     S
V41     V35    9.971   1_554     S
V41     V52    9.971   1_565     S
V42     Er1    10.024   1_655     S
V42     Er9    10.024   1_655     S
V42     V43    10.013   .     S
V42     V44    10.013   .     S
V42     V47    9.968   .     S
V42     V46    9.968   .     S
V42     V56    9.971   .     S
V43     Er2    10.024   1_565     S
V43     V44    10.013   .     S
V43     Er60    10.024   1_565     S
V43     V45    9.968   .     S
V43     V47    9.968   .     S
V44     V46    9.968   .     S
V44     V45    9.968   .     S
V44     V54    9.971   .     S
V45     Er2    10.024   1_565     S
V45     V47    10.013   .     S
V45     V46    10.013   .     S
V45     V29    9.971   1_554     S
V45     V57    9.971   1_565     S
V46     Er1    10.024   1_655     S
V46     V47    10.013   .     S
V46     V39    9.971   1_655     S
V46     V28    9.971   1_554     S
V47     Er9    10.024   1_655     S
V47     Er60    10.024   1_565     S
V47     V40    9.971   1_655     S
V47     V58    9.971   1_565     S
V48     V49    10.013   .     S
V48     V50    10.013   .     S
V48     V51    9.968   .     S
V48     V53    9.968   .     S
V49     V50    10.013   .     S
V49     V53    9.968   .     S
V49     V52    9.968   .     S
V49     V54    9.971   .     S
V50     V52    9.968   .     S
V50     V51    9.968   .     S
V50     V55    9.971   .     S
V51     V52    10.013   .     S
V51     V53    10.013   .     S
V51     V40    9.971   1_545     S
V51     V58    9.971   1_455     S
V52     V53    10.013   .     S
V52     V23    9.971   1_554     S
V52     V41    9.971   1_545     S
V53     V21    9.971   1_554     S
V53     V59    9.971   1_455     S
V54     V56    10.013   .     S
V54     V55    10.013   .     S
V54     V57    9.968   .     S
V54     V59    9.968   .     S
V55     V56    10.013   .     S
V55     Er60    10.024   .     S
V55     V57    9.968   .     S
V55     V58    9.968   .     S
V56     Er1    10.024   1_655     S
V56     Er4    10.024   1_655     S
V56     V58    9.968   .     S
V56     V59    9.968   .     S
V57     V59    10.013   .     S
V57     V58    10.013   .     S
V57     V16    9.971   1_554     S
V57     V45    9.971   1_545     S
V58     Er4    10.024   1_655     S
V58     V59    10.013   .     S
V58     Er60    10.024   .     S
V58     V51    9.971   1_655     S
V58     V47    9.971   1_545     S
V59     Er1    10.024   1_655     S
V59     V53    9.971   1_655     S
V59     V17    9.971   1_554     S
Er60     V47    10.024   1_545     S
Er60     V43    10.024   1_545     S
Er60     V27    10.024   1_545     S
Er60     V24    10.024   1_545     S
