data_cdj
_audit_creation_date              2020-02-02
_audit_creation_method            'Pymatgen'
_symmetry_space_group_name_H-M    'P1'
_symmetry_Int_Tables_number       1
loop_
_symmetry_equiv_pos_as_xyz
  x,y,z
_cell_length_a                    36.4575
_cell_length_b                    36.4575
_cell_length_c                    36.4575
_cell_angle_alpha                 90.0
_cell_angle_beta                 90.0
_cell_angle_gamma                 90.0
loop_
_atom_site_label
_atom_site_type_symbol
_atom_site_fract_x
_atom_site_fract_y
_atom_site_fract_z
V1     V     0.25   0.8628   0.0
V2     V     0.75   0.1372   0.0
V3     V     0.8628   0.0   0.25
V4     V     0.1372   0.0   0.75
V5     V     0.0   0.75   0.1372
V6     V     0.0   0.25   0.8628
V7     V     0.75   0.8628   0.0
V8     V     0.25   0.1372   0.0
V9     V     0.8628   0.0   0.75
V10     V     0.1372   0.0   0.25
V11     V     0.0   0.75   0.8628
V12     V     0.0   0.25   0.1372
V13     V     0.3628   0.5   0.75
V14     V     0.3628   0.5   0.25
V15     V     0.25   0.3628   0.5
Er16     Er     0.25   0.25   0.75
V17     V     0.75   0.3628   0.5
V18     V     0.5   0.25   0.6372
Er19     Er     0.75   0.25   0.75
V20     V     0.25   0.6372   0.5
Er21     Er     0.25   0.75   0.75
V22     V     0.6372   0.5   0.75
V23     V     0.5   0.75   0.6372
V24     V     0.75   0.6372   0.5
Er25     Er     0.75   0.75   0.75
V26     V     0.5   0.25   0.3628
Er27     Er     0.75   0.25   0.25
V28     V     0.5   0.75   0.3628
V29     V     0.6372   0.5   0.25
Er30     Er     0.75   0.75   0.25
Er31     Er     0.25   0.75   0.25
Er32     Er     0.25   0.25   0.25
loop_
_geom_bond_atom_site_label_1
_geom_bond_atom_site_label_2
_geom_bond_distance
_geom_bond_site_symmetry_2
_ccdc_geom_bond_type
V1     Er31    10.0   .     S
V1     Er21    10.0   1_554     S
V1     V8    10.0   1_565     S
V2     Er27    10.0   .     S
V2     Er19    10.0   1_554     S
V2     V7    10.0   1_545     S
V3     Er27    10.0   .     S
V3     Er30    10.0   1_545     S
V3     V10    10.0   1_655     S
V4     Er16    10.0   .     S
V4     Er21    10.0   1_545     S
V4     V9    10.0   1_455     S
V5     Er31    10.0   .     S
V5     Er30    10.0   1_455     S
V5     V11    10.0   1_554     S
V6     Er16    10.0   .     S
V6     Er19    10.0   1_455     S
V6     V12    10.0   1_556     S
V7     Er30    10.0   .     S
V7     Er25    10.0   1_554     S
V7     V2    10.0   1_565     S
V8     Er32    10.0   .     S
V8     Er16    10.0   1_554     S
V8     V1    10.0   1_545     S
V9     Er19    10.0   .     S
V9     Er25    10.0   1_545     S
V9     V4    10.0   1_655     S
V10     Er32    10.0   .     S
V10     Er31    10.0   1_545     S
V10     V3    10.0   1_455     S
V11     Er21    10.0   .     S
V11     Er25    10.0   1_455     S
V11     V5    10.0   1_556     S
V12     Er32    10.0   .     S
V12     Er27    10.0   1_455     S
V12     V6    10.0   1_554     S
V13     Er21    10.0   .     S
V13     Er16    10.0   .     S
V13     V22    10.0   .     S
V14     Er31    10.0   .     S
V14     Er32    10.0   .     S
V14     V29    10.0   .     S
V15     Er16    10.0   .     S
V15     Er32    10.0   .     S
V15     V20    10.0   .     S
Er16     V8    10.0   1_556     S
Er16     V18    10.0   .     S
V17     Er19    10.0   .     S
V17     Er27    10.0   .     S
V17     V24    10.0   .     S
V18     Er19    10.0   .     S
V18     V26    10.0   .     S
Er19     V2    10.0   1_556     S
Er19     V6    10.0   1_655     S
Er19     V22    10.0   .     S
V20     Er21    10.0   .     S
V20     Er31    10.0   .     S
Er21     V1    10.0   1_556     S
Er21     V4    10.0   1_565     S
Er21     V23    10.0   .     S
V22     Er25    10.0   .     S
V23     Er25    10.0   .     S
V23     V28    10.0   .     S
V24     Er30    10.0   .     S
V24     Er25    10.0   .     S
Er25     V7    10.0   1_556     S
Er25     V9    10.0   1_565     S
Er25     V11    10.0   1_655     S
V26     Er32    10.0   .     S
V26     Er27    10.0   .     S
Er27     V12    10.0   1_655     S
Er27     V29    10.0   .     S
V28     Er30    10.0   .     S
V28     Er31    10.0   .     S
V29     Er30    10.0   .     S
Er30     V3    10.0   1_565     S
Er30     V5    10.0   1_655     S
Er31     V10    10.0   1_565     S
