data_cdp
_audit_creation_date              2020-02-02
_audit_creation_method            'Pymatgen'
_symmetry_space_group_name_H-M    'P1'
_symmetry_Int_Tables_number       1
loop_
_symmetry_equiv_pos_as_xyz
  x,y,z
_cell_length_a                    21.988
_cell_length_b                    21.988
_cell_length_c                    39.2217
_cell_angle_alpha                 90.0
_cell_angle_beta                 90.0
_cell_angle_gamma                 90.0
loop_
_atom_site_label
_atom_site_type_symbol
_atom_site_fract_x
_atom_site_fract_y
_atom_site_fract_z
Er1     Er     0.5892   0.5892   0.6061
Er2     Er     0.9108   0.9108   0.6061
Er3     Er     0.4108   0.4108   0.3939
Er4     Er     0.0892   0.0892   0.3939
V5     V     0.25   0.75   0.25
V6     V     0.25   0.75   0.75
V7     V     0.75   0.25   0.25
Er8     Er     0.4108   0.0892   0.8939
Er9     Er     0.0892   0.4108   0.8939
Er10     Er     0.9108   0.5892   0.1061
Er11     Er     0.5892   0.9108   0.1061
V12     V     0.75   0.25   0.75
loop_
_geom_bond_atom_site_label_1
_geom_bond_atom_site_label_2
_geom_bond_distance
_geom_bond_site_symmetry_2
_ccdc_geom_bond_type
Er1     Er2    10.0   .     S
Er1     Er3    10.0   .     S
Er1     V6    10.0   .     S
Er1     V12    10.0   .     S
Er2     Er4    10.0   1_665     S
Er2     V6    10.0   1_655     S
Er2     V12    10.0   1_565     S
Er3     Er4    10.0   .     S
Er3     V5    10.0   .     S
Er3     V7    10.0   .     S
Er4     Er2    10.0   1_445     S
Er4     V5    10.0   1_545     S
Er4     V7    10.0   1_455     S
V5     Er4    10.0   1_565     S
V5     Er11    10.0   .     S
V5     Er10    10.0   1_455     S
V6     Er8    10.0   1_565     S
V6     Er2    10.0   1_455     S
V6     Er9    10.0   .     S
V7     Er4    10.0   1_655     S
V7     Er11    10.0   1_545     S
V7     Er10    10.0   .     S
Er8     V6    10.0   1_545     S
Er8     Er9    10.0   .     S
Er8     Er11    10.0   1_546     S
Er8     V12    10.0   .     S
Er9     Er10    10.0   1_456     S
Er9     V12    10.0   1_455     S
Er10     V5    10.0   1_655     S
Er10     Er11    10.0   .     S
Er10     Er9    10.0   1_654     S
Er11     V7    10.0   1_565     S
Er11     Er8    10.0   1_564     S
V12     Er9    10.0   1_655     S
V12     Er2    10.0   1_545     S
