data_ckp
_audit_creation_date              2020-02-02
_audit_creation_method            'Pymatgen'
_symmetry_space_group_name_H-M    'P1'
_symmetry_Int_Tables_number       1
loop_
_symmetry_equiv_pos_as_xyz
  x,y,z
_cell_length_a                    64.0134
_cell_length_b                    64.0134
_cell_length_c                    64.0134
_cell_angle_alpha                 90.0
_cell_angle_beta                 90.0
_cell_angle_gamma                 90.0
loop_
_atom_site_label
_atom_site_type_symbol
_atom_site_fract_x
_atom_site_fract_y
_atom_site_fract_z
Er1     Er     0.5538   0.6961   0.0462
V2     V     0.6668   0.7652   0.1075
Er3     Er     0.3038   0.7038   0.9461
V4     V     0.4168   0.6425   0.0152
Er5     Er     0.8038   0.7962   0.0539
V6     V     0.9168   0.8575   0.9848
Er7     Er     0.0538   0.8039   0.9538
V8     V     0.1668   0.7348   0.8925
Er9     Er     0.1962   0.7038   0.0539
V10     V     0.0832   0.6425   0.9848
Er11     Er     0.4462   0.8039   0.0462
V12     V     0.3332   0.7348   0.1075
Er13     Er     0.9462   0.6961   0.9538
V14     V     0.8332   0.7652   0.8925
Er15     Er     0.6962   0.7962   0.9461
V16     V     0.5832   0.8575   0.0152
Er17     Er     0.0462   0.5538   0.6961
V18     V     0.1075   0.6668   0.7652
Er19     Er     0.0539   0.8038   0.7962
V20     V     0.9848   0.9168   0.8575
Er21     Er     0.9461   0.3038   0.7038
V22     V     0.0152   0.4168   0.6425
Er23     Er     0.9538   0.0538   0.8039
V24     V     0.8925   0.1668   0.7348
Er25     Er     0.0462   0.4462   0.8039
V26     V     0.1075   0.3332   0.7348
Er27     Er     0.9461   0.6962   0.7962
V28     V     0.0152   0.5832   0.8575
Er29     Er     0.0539   0.1962   0.7038
V30     V     0.9848   0.0832   0.6425
Er31     Er     0.9538   0.9462   0.6961
V32     V     0.8925   0.8332   0.7652
Er33     Er     0.6961   0.0462   0.5538
V34     V     0.7652   0.1075   0.6668
Er35     Er     0.7038   0.9461   0.3038
V36     V     0.6425   0.0152   0.4168
Er37     Er     0.8039   0.9538   0.0538
V38     V     0.7348   0.8925   0.1668
Er39     Er     0.7962   0.0539   0.8038
V40     V     0.8575   0.9848   0.9168
Er41     Er     0.8039   0.0462   0.4462
V42     V     0.7348   0.1075   0.3332
Er43     Er     0.7038   0.0539   0.1962
V44     V     0.6425   0.9848   0.0832
Er45     Er     0.6961   0.9538   0.9462
V46     V     0.7652   0.8925   0.8332
Er47     Er     0.7962   0.9461   0.6962
V48     V     0.8575   0.0152   0.5832
Er49     Er     0.2962   0.4461   0.1962
V50     V     0.3575   0.5152   0.0832
Er51     Er     0.3039   0.5462   0.9462
V52     V     0.2348   0.6075   0.8332
Er53     Er     0.1961   0.4538   0.4462
V54     V     0.2652   0.3925   0.3332
Er55     Er     0.2038   0.5539   0.6962
V56     V     0.1425   0.4848   0.5832
Er57     Er     0.2962   0.5539   0.3038
V58     V     0.3575   0.4848   0.4168
Er59     Er     0.1961   0.5462   0.0538
V60     V     0.2652   0.6075   0.1668
Er61     Er     0.3039   0.4538   0.5538
V62     V     0.2348   0.3925   0.6668
Er63     Er     0.2038   0.4461   0.8038
V64     V     0.1425   0.5152   0.9168
Er65     Er     0.4462   0.1961   0.4538
V66     V     0.3332   0.2652   0.3925
Er67     Er     0.1962   0.2962   0.4461
V68     V     0.0832   0.3575   0.5152
Er69     Er     0.9462   0.3039   0.5462
V70     V     0.8332   0.2348   0.6075
Er71     Er     0.6962   0.2038   0.5539
V72     V     0.5832   0.1425   0.4848
Er73     Er     0.5538   0.3039   0.4538
V74     V     0.6668   0.2348   0.3925
Er75     Er     0.8038   0.2038   0.4461
V76     V     0.9168   0.1425   0.5152
Er77     Er     0.3038   0.2962   0.5539
V78     V     0.4168   0.3575   0.4848
Er79     Er     0.0538   0.1961   0.5462
V80     V     0.1668   0.2652   0.6075
Er81     Er     0.4538   0.4462   0.1961
V82     V     0.3925   0.3332   0.2652
Er83     Er     0.4461   0.1962   0.2962
V84     V     0.5152   0.0832   0.3575
Er85     Er     0.5539   0.6962   0.2038
V86     V     0.4848   0.5832   0.1425
Er87     Er     0.5462   0.9462   0.3039
V88     V     0.6075   0.8332   0.2348
Er89     Er     0.5539   0.3038   0.2962
V90     V     0.4848   0.4168   0.3575
Er91     Er     0.5462   0.0538   0.1961
V92     V     0.6075   0.1668   0.2652
Er93     Er     0.4461   0.8038   0.2038
V94     V     0.5152   0.9168   0.1425
Er95     Er     0.4538   0.5538   0.3039
V96     V     0.3925   0.6668   0.2348
loop_
_geom_bond_atom_site_label_1
_geom_bond_atom_site_label_2
_geom_bond_distance
_geom_bond_site_symmetry_2
_ccdc_geom_bond_type
Er1     V4    9.626   .     S
Er1     V2    9.343   .     S
Er1     Er85    10.092   .     S
Er1     Er11    9.752   .     S
Er1     V86    10.479   .     S
Er1     V16    10.686   .     S
V2     Er5    9.626   .     S
V2     V88    9.983   .     S
V2     V38    9.983   .     S
V2     V16    9.921   .     S
V2     Er85    10.479   .     S
V2     Er15    10.686   1_554     S
Er3     V8    9.626   .     S
Er3     V4    9.343   1_556     S
Er3     Er51    10.092   .     S
Er3     Er9    9.752   1_556     S
Er3     V52    10.479   .     S
Er3     V12    10.686   1_556     S
V4     Er3    9.343   1_554     S
V4     V86    9.983   .     S
V4     V50    9.983   .     S
V4     V12    9.921   .     S
V4     Er51    10.479   1_554     S
V4     Er11    10.686   .     S
Er5     V6    9.343   1_554     S
Er5     Er37    10.092   .     S
Er5     Er15    9.752   1_554     S
Er5     V38    10.479   .     S
Er5     V14    10.686   1_554     S
V6     Er7    9.626   1_655     S
V6     Er5    9.343   1_556     S
V6     V20    9.983   .     S
V6     V40    9.983   .     S
V6     V14    9.921   .     S
V6     Er37    10.479   1_556     S
V6     Er13    10.686   .     S
Er7     V6    9.626   1_455     S
Er7     V8    9.343   .     S
Er7     Er19    10.092   .     S
Er7     Er13    9.752   1_455     S
Er7     V20    10.479   1_455     S
Er7     V10    10.686   .     S
V8     V18    9.983   .     S
V8     V52    9.983   .     S
V8     V10    9.921   .     S
V8     Er19    10.479   .     S
V8     Er9    10.686   1_556     S
Er9     V12    9.626   .     S
Er9     V10    9.343   1_554     S
Er9     Er59    10.092   .     S
Er9     Er3    9.752   1_554     S
Er9     V60    10.479   .     S
Er9     V8    10.686   1_554     S
V10     Er13    9.626   1_455     S
V10     Er9    9.343   1_556     S
V10     V28    9.983   .     S
V10     V64    9.983   .     S
V10     Er59    10.479   1_556     S
Er11     V16    9.626   .     S
Er11     V12    9.343   .     S
Er11     Er93    10.092   .     S
Er11     V94    10.479   .     S
V12     V96    9.983   .     S
V12     V60    9.983   .     S
V12     Er93    10.479   .     S
V12     Er3    10.686   1_554     S
Er13     V10    9.626   1_655     S
Er13     V14    9.343   .     S
Er13     Er27    10.092   .     S
Er13     Er7    9.752   1_655     S
Er13     V28    10.479   1_655     S
V14     Er15    9.626   .     S
V14     V46    9.983   .     S
V14     V32    9.983   .     S
V14     Er27    10.479   .     S
V14     Er5    10.686   1_556     S
Er15     V16    9.343   1_556     S
Er15     Er45    10.092   .     S
Er15     Er5    9.752   1_556     S
Er15     V46    10.479   .     S
Er15     V2    10.686   1_556     S
V16     Er15    9.343   1_554     S
V16     V44    9.983   .     S
V16     V94    9.983   .     S
V16     Er45    10.479   1_554     S
Er17     V22    9.626   .     S
Er17     V18    9.343   .     S
Er17     Er55    10.092   .     S
Er17     Er25    9.752   .     S
Er17     V56    10.479   .     S
Er17     V28    10.686   .     S
V18     Er19    9.626   .     S
V18     V52    9.983   .     S
V18     V28    9.921   .     S
V18     Er55    10.479   .     S
V18     Er27    10.686   1_455     S
Er19     V20    9.343   1_455     S
Er19     Er27    9.752   1_455     S
Er19     V32    10.686   1_455     S
V20     Er23    9.626   1_565     S
V20     Er19    9.343   1_655     S
V20     V40    9.983   .     S
V20     V32    9.921   .     S
V20     Er7    10.479   1_655     S
V20     Er31    10.686   .     S
Er21     V24    9.626   .     S
Er21     V22    9.343   1_655     S
Er21     Er69    10.092   .     S
Er21     Er29    9.752   1_655     S
Er21     V70    10.479   .     S
Er21     V26    10.686   1_655     S
V22     Er21    9.343   1_455     S
V22     V56    9.983   .     S
V22     V68    9.983   .     S
V22     V26    9.921   .     S
V22     Er69    10.479   1_455     S
V22     Er25    10.686   .     S
Er23     V20    9.626   1_545     S
Er23     V24    9.343   .     S
Er23     Er39    10.092   .     S
Er23     Er31    9.752   1_545     S
Er23     V40    10.479   1_545     S
Er23     V30    10.686   .     S
V24     V34    9.983   .     S
V24     V70    9.983   .     S
V24     V30    9.921   .     S
V24     Er39    10.479   .     S
V24     Er29    10.686   1_655     S
Er25     V28    9.626   .     S
Er25     V26    9.343   .     S
Er25     Er63    10.092   .     S
Er25     V64    10.479   .     S
V26     Er29    9.626   .     S
V26     V80    9.983   .     S
V26     V62    9.983   .     S
V26     Er63    10.479   .     S
V26     Er21    10.686   1_455     S
Er27     V32    9.626   .     S
Er27     V28    9.343   1_655     S
Er27     Er19    9.752   1_655     S
Er27     V18    10.686   1_655     S
V28     Er27    9.343   1_455     S
V28     V64    9.983   .     S
V28     Er13    10.479   1_455     S
Er29     V30    9.343   1_455     S
Er29     Er79    10.092   .     S
Er29     Er21    9.752   1_455     S
Er29     V80    10.479   .     S
Er29     V24    10.686   1_455     S
V30     Er31    9.626   1_545     S
V30     Er29    9.343   1_655     S
V30     V48    9.983   .     S
V30     V76    9.983   .     S
V30     Er79    10.479   1_655     S
Er31     V30    9.626   1_565     S
Er31     V32    9.343   .     S
Er31     Er47    10.092   .     S
Er31     Er23    9.752   1_565     S
Er31     V48    10.479   1_565     S
V32     V46    9.983   .     S
V32     Er47    10.479   .     S
V32     Er19    10.686   1_655     S
Er33     V36    9.626   .     S
Er33     V34    9.343   .     S
Er33     Er71    10.092   .     S
Er33     Er41    9.752   .     S
Er33     V72    10.479   .     S
Er33     V48    10.686   .     S
V34     Er39    9.626   .     S
V34     V70    9.983   .     S
V34     V48    9.921   .     S
V34     Er71    10.479   .     S
V34     Er47    10.686   1_545     S
Er35     V38    9.626   .     S
Er35     V36    9.343   1_565     S
Er35     Er87    10.092   .     S
Er35     Er43    9.752   1_565     S
Er35     V88    10.479   .     S
Er35     V42    10.686   1_565     S
V36     Er35    9.343   1_545     S
V36     V72    9.983   .     S
V36     V84    9.983   .     S
V36     V42    9.921   .     S
V36     Er87    10.479   1_545     S
V36     Er41    10.686   .     S
Er37     V40    9.626   1_554     S
Er37     V38    9.343   .     S
Er37     Er45    9.752   1_554     S
Er37     V6    10.479   1_554     S
Er37     V44    10.686   .     S
V38     V88    9.983   .     S
V38     V44    9.921   .     S
V38     Er43    10.686   1_565     S
Er39     V40    9.343   1_545     S
Er39     Er47    9.752   1_545     S
Er39     V46    10.686   1_545     S
V40     Er37    9.626   1_556     S
V40     Er39    9.343   1_565     S
V40     V46    9.921   .     S
V40     Er23    10.479   1_565     S
V40     Er45    10.686   .     S
Er41     V48    9.626   .     S
Er41     V42    9.343   .     S
Er41     Er75    10.092   .     S
Er41     V76    10.479   .     S
V42     Er43    9.626   .     S
V42     V74    9.983   .     S
V42     V92    9.983   .     S
V42     Er75    10.479   .     S
V42     Er35    10.686   1_545     S
Er43     V44    9.343   1_545     S
Er43     Er91    10.092   .     S
Er43     Er35    9.752   1_545     S
Er43     V92    10.479   .     S
Er43     V38    10.686   1_545     S
V44     Er45    9.626   1_554     S
V44     Er43    9.343   1_565     S
V44     V94    9.983   .     S
V44     Er91    10.479   1_565     S
Er45     V44    9.626   1_556     S
Er45     V46    9.343   .     S
Er45     Er37    9.752   1_556     S
Er45     V16    10.479   1_556     S
V46     Er47    9.626   .     S
V46     Er39    10.686   1_565     S
Er47     V48    9.343   1_565     S
Er47     Er39    9.752   1_565     S
Er47     V34    10.686   1_565     S
V48     Er47    9.343   1_545     S
V48     V76    9.983   .     S
V48     Er31    10.479   1_545     S
Er49     V54    9.626   .     S
Er49     V50    9.343   .     S
Er49     Er81    10.092   .     S
Er49     Er57    9.752   .     S
Er49     V82    10.479   .     S
Er49     V60    10.686   .     S
V50     Er51    9.626   1_554     S
V50     V86    9.983   .     S
V50     V60    9.921   .     S
V50     Er81    10.479   .     S
V50     Er59    10.686   .     S
Er51     V50    9.626   1_556     S
Er51     V52    9.343   .     S
Er51     Er59    9.752   1_556     S
Er51     V4    10.479   1_556     S
Er51     V64    10.686   .     S
V52     Er55    9.626   .     S
V52     V64    9.921   .     S
V52     Er63    10.686   .     S
Er53     V56    9.626   .     S
Er53     V54    9.343   .     S
Er53     Er67    10.092   .     S
Er53     Er61    9.752   .     S
Er53     V68    10.479   .     S
Er53     V58    10.686   .     S
V54     V66    9.983   .     S
V54     V82    9.983   .     S
V54     V58    9.921   .     S
V54     Er67    10.479   .     S
V54     Er57    10.686   .     S
Er55     V56    9.343   .     S
Er55     Er63    9.752   .     S
Er55     V62    10.686   .     S
V56     V68    9.983   .     S
V56     V62    9.921   .     S
V56     Er61    10.686   .     S
Er57     V60    9.626   .     S
Er57     V58    9.343   .     S
Er57     Er95    10.092   .     S
Er57     V96    10.479   .     S
V58     Er61    9.626   .     S
V58     V78    9.983   .     S
V58     V90    9.983   .     S
V58     Er95    10.479   .     S
Er59     V64    9.626   1_554     S
Er59     V60    9.343   .     S
Er59     Er51    9.752   1_554     S
Er59     V10    10.479   1_554     S
V60     V96    9.983   .     S
Er61     V62    9.343   .     S
Er61     Er77    10.092   .     S
Er61     V78    10.479   .     S
V62     Er63    9.626   .     S
V62     V80    9.983   .     S
V62     Er77    10.479   .     S
Er63     V64    9.343   .     S
V64     Er59    9.626   1_556     S
Er65     V72    9.626   .     S
Er65     V66    9.343   .     S
Er65     Er83    10.092   .     S
Er65     Er73    9.752   .     S
Er65     V84    10.479   .     S
Er65     V78    10.686   .     S
V66     Er67    9.626   .     S
V66     V82    9.983   .     S
V66     V78    9.921   .     S
V66     Er83    10.479   .     S
V66     Er77    10.686   .     S
Er67     V68    9.343   .     S
Er67     Er77    9.752   .     S
Er67     V80    10.686   .     S
V68     Er69    9.626   1_455     S
V68     V80    9.921   .     S
V68     Er79    10.686   .     S
Er69     V68    9.626   1_655     S
Er69     V70    9.343   .     S
Er69     Er79    9.752   1_655     S
Er69     V22    10.479   1_655     S
Er69     V76    10.686   .     S
V70     Er71    9.626   .     S
V70     V76    9.921   .     S
V70     Er75    10.686   .     S
Er71     V72    9.343   .     S
Er71     Er75    9.752   .     S
Er71     V74    10.686   .     S
V72     V84    9.983   .     S
V72     V74    9.921   .     S
V72     Er73    10.686   .     S
Er73     V78    9.626   .     S
Er73     V74    9.343   .     S
Er73     Er89    10.092   .     S
Er73     V90    10.479   .     S
V74     Er75    9.626   .     S
V74     V92    9.983   .     S
V74     Er89    10.479   .     S
Er75     V76    9.343   .     S
V76     Er79    9.626   1_655     S
Er77     V80    9.626   .     S
Er77     V78    9.343   .     S
V78     V90    9.983   .     S
Er79     V76    9.626   1_455     S
Er79     V80    9.343   .     S
Er79     Er69    9.752   1_455     S
Er79     V30    10.479   1_455     S
Er81     V86    9.626   .     S
Er81     V82    9.343   .     S
Er81     Er95    9.752   .     S
Er81     V90    10.686   .     S
V82     Er83    9.626   .     S
V82     V90    9.921   .     S
V82     Er89    10.686   .     S
Er83     V84    9.343   .     S
Er83     Er89    9.752   .     S
Er83     V92    10.686   .     S
V84     Er87    9.626   1_545     S
V84     V92    9.921   .     S
V84     Er91    10.686   .     S
Er85     V88    9.626   .     S
Er85     V86    9.343   .     S
Er85     Er93    9.752   .     S
Er85     V96    10.686   .     S
V86     V96    9.921   .     S
V86     Er95    10.686   .     S
Er87     V84    9.626   1_565     S
Er87     V88    9.343   .     S
Er87     Er91    9.752   1_565     S
Er87     V36    10.479   1_565     S
Er87     V94    10.686   .     S
V88     V94    9.921   .     S
V88     Er93    10.686   .     S
Er89     V92    9.626   .     S
Er89     V90    9.343   .     S
V90     Er95    9.626   .     S
Er91     V94    9.626   1_545     S
Er91     V92    9.343   .     S
Er91     Er87    9.752   1_545     S
Er91     V44    10.479   1_545     S
Er93     V96    9.626   .     S
Er93     V94    9.343   .     S
V94     Er91    9.626   1_565     S
Er95     V96    9.343   .     S
