data_crsd
_audit_creation_date              2020-02-02
_audit_creation_method            'Pymatgen'
_symmetry_space_group_name_H-M    'P1'
_symmetry_Int_Tables_number       1
loop_
_symmetry_equiv_pos_as_xyz
  x,y,z
_cell_length_a                    23.094
_cell_length_b                    23.094
_cell_length_c                    23.094
_cell_angle_alpha                 90.0
_cell_angle_beta                 90.0
_cell_angle_gamma                 90.0
loop_
_atom_site_label
_atom_site_type_symbol
_atom_site_fract_x
_atom_site_fract_y
_atom_site_fract_z
Er1     Er     0.875   0.875   0.875
V2     V     0.875   0.875   0.375
V3     V     0.875   0.375   0.875
V4     V     0.375   0.875   0.875
Er5     Er     0.375   0.375   0.875
Er6     Er     0.375   0.875   0.375
Er7     Er     0.875   0.375   0.375
V8     V     0.125   0.125   0.625
V9     V     0.125   0.625   0.125
V10     V     0.625   0.125   0.125
Er11     Er     0.625   0.625   0.125
Er12     Er     0.125   0.625   0.625
V13     V     0.375   0.375   0.375
V14     V     0.625   0.625   0.625
Er15     Er     0.625   0.125   0.625
Er16     Er     0.125   0.125   0.125
loop_
_geom_bond_atom_site_label_1
_geom_bond_atom_site_label_2
_geom_bond_distance
_geom_bond_site_symmetry_2
_ccdc_geom_bond_type
Er1     V9    10.0   1_656     S
Er1     V14    10.0   .     S
Er1     V8    10.0   1_665     S
Er1     V10    10.0   1_566     S
V2     V8    10.0   1_665     S
V2     Er15    10.0   1_565     S
V2     Er12    10.0   1_655     S
V2     V14    10.0   .     S
V2     Er16    10.0   1_665     S
V2     Er11    10.0   .     S
V2     V9    10.0   1_655     S
V2     V10    10.0   1_565     S
V3     V9    10.0   1_656     S
V3     Er12    10.0   1_655     S
V3     Er11    10.0   1_556     S
V3     V14    10.0   .     S
V3     Er16    10.0   1_656     S
V3     Er15    10.0   .     S
V3     V10    10.0   1_556     S
V3     V8    10.0   1_655     S
V4     V10    10.0   1_566     S
V4     Er15    10.0   1_565     S
V4     Er11    10.0   1_556     S
V4     V14    10.0   .     S
V4     Er16    10.0   1_566     S
V4     Er12    10.0   .     S
V4     V8    10.0   1_565     S
V4     V9    10.0   1_556     S
Er5     V14    10.0   .     S
Er5     V10    10.0   1_556     S
Er5     V9    10.0   1_556     S
Er5     V8    10.0   .     S
Er6     V14    10.0   .     S
Er6     V8    10.0   1_565     S
Er6     V10    10.0   1_565     S
Er6     V9    10.0   .     S
Er7     V14    10.0   .     S
Er7     V8    10.0   1_655     S
Er7     V9    10.0   1_655     S
Er7     V10    10.0   .     S
V8     Er1    10.0   1_445     S
V8     V2    10.0   1_445     S
V8     Er7    10.0   1_455     S
V8     Er6    10.0   1_545     S
V8     V13    10.0   .     S
V8     V4    10.0   1_545     S
V8     V3    10.0   1_455     S
V9     Er1    10.0   1_454     S
V9     V3    10.0   1_454     S
V9     Er7    10.0   1_455     S
V9     Er5    10.0   1_554     S
V9     V13    10.0   .     S
V9     V2    10.0   1_455     S
V9     V4    10.0   1_554     S
V10     Er1    10.0   1_544     S
V10     V4    10.0   1_544     S
V10     Er6    10.0   1_545     S
V10     Er5    10.0   1_554     S
V10     V13    10.0   .     S
V10     V3    10.0   1_554     S
V10     V2    10.0   1_545     S
Er11     V3    10.0   1_554     S
Er11     V4    10.0   1_554     S
Er11     V13    10.0   .     S
Er12     V2    10.0   1_455     S
Er12     V3    10.0   1_455     S
Er12     V13    10.0   .     S
V13     V14    10.0   .     S
V13     Er15    10.0   .     S
V13     Er16    10.0   .     S
Er15     V2    10.0   1_545     S
Er15     V4    10.0   1_545     S
Er16     V4    10.0   1_544     S
Er16     V3    10.0   1_454     S
Er16     V2    10.0   1_445     S
