data_crt
_audit_creation_date              2020-02-02
_audit_creation_method            'Pymatgen'
_symmetry_space_group_name_H-M    'P1'
_symmetry_Int_Tables_number       1
loop_
_symmetry_equiv_pos_as_xyz
  x,y,z
_cell_length_a                    42.0174
_cell_length_b                    42.0174
_cell_length_c                    42.0174
_cell_angle_alpha                 90.0
_cell_angle_beta                 90.0
_cell_angle_gamma                 90.0
loop_
_atom_site_label
_atom_site_type_symbol
_atom_site_fract_x
_atom_site_fract_y
_atom_site_fract_z
V1     V     0.049   0.4192   0.2082
V2     V     0.049   0.5808   0.2918
V3     V     0.1692   0.299   0.0418
V4     V     0.3308   0.299   0.9582
V5     V     0.1692   0.701   0.4582
V6     V     0.3308   0.701   0.5419
V7     V     0.451   0.5808   0.7081
V8     V     0.451   0.4192   0.7919
V9     V     0.5808   0.7081   0.451
V10     V     0.4192   0.7919   0.451
V11     V     0.701   0.4582   0.1692
V12     V     0.701   0.5419   0.3308
V13     V     0.5808   0.2918   0.049
V14     V     0.4192   0.2082   0.049
V15     V     0.299   0.9582   0.3308
V16     V     0.299   0.0418   0.1692
V17     V     0.7919   0.451   0.4192
V18     V     0.7081   0.451   0.5808
V19     V     0.4582   0.1692   0.701
V20     V     0.5419   0.3308   0.701
V21     V     0.0418   0.1692   0.299
V22     V     0.9582   0.3308   0.299
V23     V     0.2082   0.049   0.4192
V24     V     0.2918   0.049   0.5808
V25     V     0.9582   0.6692   0.201
V26     V     0.0418   0.8308   0.201
V27     V     0.5419   0.6692   0.799
V28     V     0.4582   0.8308   0.799
V29     V     0.7919   0.549   0.0808
V30     V     0.7081   0.549   0.9192
V31     V     0.2082   0.951   0.0808
V32     V     0.2918   0.951   0.9192
V33     V     0.201   0.9582   0.6692
V34     V     0.201   0.0418   0.8308
V35     V     0.0808   0.7919   0.549
V36     V     0.9192   0.7081   0.549
V37     V     0.799   0.5419   0.6692
V38     V     0.799   0.4582   0.8308
V39     V     0.0808   0.2082   0.951
V40     V     0.9192   0.2918   0.951
V41     V     0.6692   0.201   0.9582
V42     V     0.8308   0.201   0.0418
V43     V     0.549   0.0808   0.7919
V44     V     0.549   0.9192   0.7081
V45     V     0.6692   0.799   0.5419
V46     V     0.8308   0.799   0.4582
V47     V     0.951   0.0808   0.2082
V48     V     0.951   0.9192   0.2918
loop_
_geom_bond_atom_site_label_1
_geom_bond_atom_site_label_2
_geom_bond_distance
_geom_bond_site_symmetry_2
_ccdc_geom_bond_type
V1     V3    9.995   .     S
V1     V2    7.646   .     S
V1     V25    11.18   1_455     S
V1     V21    11.18   .     S
V2     V5    9.995   .     S
V2     V22    11.18   1_455     S
V2     V26    11.18   .     S
V3     V4    7.646   1_554     S
V3     V14    11.18   .     S
V3     V40    11.18   1_454     S
V4     V8    9.995   .     S
V4     V3    7.646   1_556     S
V4     V39    11.18   .     S
V4     V13    11.18   1_556     S
V5     V6    7.646   .     S
V5     V10    11.18   .     S
V5     V36    11.18   1_455     S
V6     V7    9.995   .     S
V6     V35    11.18   .     S
V6     V9    11.18   .     S
V7     V8    7.646   .     S
V7     V20    11.18   .     S
V7     V28    11.18   .     S
V8     V27    11.18   .     S
V8     V19    11.18   .     S
V9     V12    9.995   .     S
V9     V10    7.646   .     S
V9     V46    11.18   .     S
V10     V15    9.995   .     S
V10     V45    11.18   .     S
V11     V13    9.995   .     S
V11     V12    7.646   .     S
V11     V17    11.18   .     S
V11     V30    11.18   1_554     S
V12     V29    11.18   .     S
V12     V18    11.18   .     S
V13     V14    7.646   .     S
V13     V4    11.18   1_554     S
V13     V42    11.18   .     S
V14     V16    9.995   .     S
V14     V41    11.18   1_554     S
V15     V16    7.646   1_565     S
V15     V31    11.18   .     S
V15     V24    11.18   1_565     S
V16     V15    7.646   1_545     S
V16     V23    11.18   .     S
V16     V32    11.18   1_544     S
V17     V22    9.995   .     S
V17     V18    7.646   .     S
V17     V37    11.18   .     S
V18     V20    9.995   .     S
V18     V38    11.18   .     S
V19     V24    9.995   .     S
V19     V20    7.646   .     S
V19     V44    11.18   1_545     S
V20     V43    11.18   .     S
V21     V23    9.995   .     S
V21     V22    7.646   1_455     S
V21     V48    11.18   1_445     S
V22     V21    7.646   1_655     S
V22     V2    11.18   1_655     S
V22     V47    11.18   .     S
V23     V24    7.646   .     S
V23     V33    11.18   1_545     S
V24     V15    11.18   1_545     S
V24     V34    11.18   .     S
V25     V29    9.995   .     S
V25     V26    7.646   1_655     S
V25     V1    11.18   1_655     S
V25     V48    11.18   .     S
V26     V31    9.995   .     S
V26     V25    7.646   1_455     S
V26     V47    11.18   1_465     S
V27     V30    9.995   .     S
V27     V28    7.646   .     S
V27     V44    11.18   .     S
V28     V32    9.995   .     S
V28     V43    11.18   1_565     S
V29     V30    7.646   1_554     S
V29     V38    11.18   1_554     S
V30     V29    7.646   1_556     S
V30     V11    11.18   1_556     S
V30     V37    11.18   .     S
V31     V32    7.646   1_554     S
V31     V34    11.18   1_564     S
V32     V31    7.646   1_556     S
V32     V16    11.18   1_566     S
V32     V33    11.18   .     S
V33     V35    9.995   .     S
V33     V34    7.646   1_565     S
V33     V23    11.18   1_565     S
V34     V39    9.995   .     S
V34     V33    7.646   1_545     S
V34     V31    11.18   1_546     S
V35     V36    7.646   1_455     S
V35     V46    11.18   1_455     S
V36     V37    9.995   .     S
V36     V35    7.646   1_655     S
V36     V5    11.18   1_655     S
V36     V45    11.18   .     S
V37     V38    7.646   .     S
V38     V40    9.995   .     S
V38     V29    11.18   1_556     S
V39     V40    7.646   1_455     S
V39     V42    11.18   1_456     S
V40     V39    7.646   1_655     S
V40     V3    11.18   1_656     S
V40     V41    11.18   .     S
V41     V43    9.995   .     S
V41     V42    7.646   1_556     S
V41     V14    11.18   1_556     S
V42     V47    9.995   .     S
V42     V41    7.646   1_554     S
V42     V39    11.18   1_654     S
V43     V44    7.646   1_545     S
V43     V28    11.18   1_545     S
V44     V45    9.995   .     S
V44     V43    7.646   1_565     S
V44     V19    11.18   1_565     S
V45     V46    7.646   .     S
V46     V48    9.995   .     S
V46     V35    11.18   1_655     S
V47     V48    7.646   1_545     S
V47     V26    11.18   1_645     S
V48     V47    7.646   1_565     S
V48     V21    11.18   1_665     S
