data_ctn
_audit_creation_date              2020-02-02
_audit_creation_method            'Pymatgen'
_symmetry_space_group_name_H-M    'P1'
_symmetry_Int_Tables_number       1
loop_
_symmetry_equiv_pos_as_xyz
  x,y,z
_cell_length_a                    37.0328
_cell_length_b                    37.0328
_cell_length_c                    37.0328
_cell_angle_alpha                 90.0
_cell_angle_beta                 90.0
_cell_angle_gamma                 90.0
loop_
_atom_site_label
_atom_site_type_symbol
_atom_site_fract_x
_atom_site_fract_y
_atom_site_fract_z
V1     V     0.4583   0.9583   0.5417
V2     V     0.9583   0.5417   0.4583
V3     V     0.5417   0.5417   0.5417
V4     V     0.2917   0.2917   0.2917
V5     V     0.5417   0.4583   0.9583
V6     V     0.4583   0.0417   0.9583
Er7     Er     0.5   0.25   0.125
V8     V     0.7083   0.2083   0.2917
V9     V     0.7083   0.7917   0.2083
Er10     Er     0.75   0.625   0.0
V11     V     0.7917   0.7917   0.7917
V12     V     0.2083   0.2917   0.7083
V13     V     0.7917   0.2083   0.7083
V14     V     0.0417   0.9583   0.4583
V15     V     0.2083   0.7083   0.7917
V16     V     0.2917   0.7083   0.2083
V17     V     0.9583   0.4583   0.0417
Er18     Er     0.125   0.5   0.25
Er19     Er     0.0   0.25   0.875
V20     V     0.0417   0.0417   0.0417
Er21     Er     0.25   0.875   0.0
Er22     Er     0.875   0.0   0.25
Er23     Er     0.0   0.75   0.625
Er24     Er     0.625   0.0   0.75
Er25     Er     0.25   0.125   0.5
Er26     Er     0.375   0.5   0.75
Er27     Er     0.75   0.375   0.5
Er28     Er     0.5   0.75   0.375
loop_
_geom_bond_atom_site_label_1
_geom_bond_atom_site_label_2
_geom_bond_distance
_geom_bond_site_symmetry_2
_ccdc_geom_bond_type
V1     Er24    10.0   1_565     S
V1     Er28    10.0   .     S
V1     Er25    10.0   1_565     S
V2     Er23    10.0   1_655     S
V2     Er18    10.0   1_655     S
V2     Er27    10.0   .     S
V3     Er28    10.0   .     S
V3     Er26    10.0   .     S
V3     Er27    10.0   .     S
V4     Er18    10.0   .     S
V4     Er25    10.0   .     S
V4     Er7    10.0   .     S
V5     Er10    10.0   1_556     S
V5     Er26    10.0   .     S
V5     Er7    10.0   1_556     S
V6     Er24    10.0   .     S
V6     Er21    10.0   1_546     S
V6     Er7    10.0   1_556     S
Er7     V5    10.0   1_554     S
Er7     V6    10.0   1_554     S
Er7     V8    10.0   .     S
V8     Er27    10.0   .     S
V8     Er22    10.0   .     S
V9     Er28    10.0   .     S
V9     Er22    10.0   1_565     S
V9     Er10    10.0   .     S
Er10     V5    10.0   1_554     S
Er10     V11    10.0   1_554     S
Er10     V17    10.0   .     S
V11     Er23    10.0   1_655     S
V11     Er10    10.0   1_556     S
V11     Er24    10.0   1_565     S
V12     Er26    10.0   .     S
V12     Er25    10.0   .     S
V12     Er19    10.0   .     S
V13     Er27    10.0   .     S
V13     Er19    10.0   1_655     S
V13     Er24    10.0   .     S
V14     Er23    10.0   .     S
V14     Er25    10.0   1_565     S
V14     Er22    10.0   1_465     S
V15     Er26    10.0   .     S
V15     Er21    10.0   1_556     S
V15     Er23    10.0   .     S
V16     Er28    10.0   .     S
V16     Er18    10.0   .     S
V16     Er21    10.0   .     S
V17     Er18    10.0   1_655     S
V17     Er19    10.0   1_654     S
Er18     V2    10.0   1_455     S
Er18     V17    10.0   1_455     S
Er19     V13    10.0   1_455     S
Er19     V17    10.0   1_456     S
Er19     V20    10.0   1_556     S
V20     Er21    10.0   1_545     S
V20     Er22    10.0   1_455     S
V20     Er19    10.0   1_554     S
Er21     V6    10.0   1_564     S
Er21     V15    10.0   1_554     S
Er21     V20    10.0   1_565     S
Er22     V9    10.0   1_545     S
Er22     V14    10.0   1_645     S
Er22     V20    10.0   1_655     S
Er23     V2    10.0   1_455     S
Er23     V11    10.0   1_455     S
Er24     V1    10.0   1_545     S
Er24     V11    10.0   1_545     S
Er25     V1    10.0   1_545     S
Er25     V14    10.0   1_545     S
