data_ddb
_audit_creation_date              2020-02-02
_audit_creation_method            'Pymatgen'
_symmetry_space_group_name_H-M    'P1'
_symmetry_Int_Tables_number       1
loop_
_symmetry_equiv_pos_as_xyz
  x,y,z
_cell_length_a                    67.9359
_cell_length_b                    67.9359
_cell_length_c                    67.9359
_cell_angle_alpha                 90.0
_cell_angle_beta                 90.0
_cell_angle_gamma                 90.0
loop_
_atom_site_label
_atom_site_type_symbol
_atom_site_fract_x
_atom_site_fract_y
_atom_site_fract_z
Er1     Er     0.7187   0.4271   0.4271
Er2     Er     0.7187   0.3229   0.3229
Er3     Er     0.7813   0.6771   0.1771
Er4     Er     0.7813   0.5729   0.0729
Er5     Er     0.4271   0.0313   0.3229
Er6     Er     0.3229   0.0313   0.4271
Er7     Er     0.0313   0.3229   0.4271
Er8     Er     0.0313   0.4271   0.3229
Er9     Er     0.3229   0.7187   0.3229
Er10     Er     0.4271   0.7187   0.4271
Er11     Er     0.3229   0.3229   0.7187
Er12     Er     0.4271   0.4271   0.7187
Er13     Er     0.0729   0.4687   0.6771
Er14     Er     0.1771   0.4687   0.5729
Er15     Er     0.2813   0.1771   0.1771
Er16     Er     0.2813   0.0729   0.0729
Er17     Er     0.1771   0.1771   0.2813
Er18     Er     0.0729   0.0729   0.2813
Er19     Er     0.1771   0.2813   0.1771
Er20     Er     0.0729   0.2813   0.0729
Er21     Er     0.3229   0.4271   0.0313
Er22     Er     0.4271   0.3229   0.0313
Er23     Er     0.1771   0.9687   0.0729
Er24     Er     0.0729   0.9687   0.1771
Er25     Er     0.5729   0.7813   0.0729
Er26     Er     0.6771   0.7813   0.1771
Er27     Er     0.9687   0.1771   0.0729
Er28     Er     0.9687   0.0729   0.1771
Er29     Er     0.5729   0.0729   0.7813
Er30     Er     0.6771   0.1771   0.7813
Er31     Er     0.7813   0.1771   0.6771
Er32     Er     0.7813   0.0729   0.5729
Er33     Er     0.5313   0.3229   0.9271
Er34     Er     0.5313   0.4271   0.8229
Er35     Er     0.0729   0.7813   0.5729
Er36     Er     0.1771   0.7813   0.6771
Er37     Er     0.0729   0.5729   0.7813
Er38     Er     0.1771   0.6771   0.7813
Er39     Er     0.4271   0.5313   0.8229
Er40     Er     0.3229   0.5313   0.9271
Er41     Er     0.7187   0.9271   0.9271
Er42     Er     0.7187   0.8229   0.8229
Er43     Er     0.3229   0.9271   0.5313
Er44     Er     0.4271   0.8229   0.5313
Er45     Er     0.1771   0.0729   0.9687
Er46     Er     0.0729   0.1771   0.9687
Er47     Er     0.5313   0.8229   0.4271
Er48     Er     0.5313   0.9271   0.3229
Er49     Er     0.8229   0.7187   0.8229
Er50     Er     0.9271   0.7187   0.9271
Er51     Er     0.9271   0.5313   0.3229
Er52     Er     0.8229   0.5313   0.4271
Er53     Er     0.9271   0.9271   0.7187
Er54     Er     0.8229   0.8229   0.7187
Er55     Er     0.9271   0.3229   0.5313
Er56     Er     0.8229   0.4271   0.5313
V57     V     0.1306   0.3097   0.9403
V58     V     0.3694   0.1903   0.0597
V59     V     0.3097   0.3097   0.1194
V60     V     0.1903   0.3694   0.0597
V61     V     0.1903   0.1903   0.8806
V62     V     0.3097   0.1306   0.9403
Er63     Er     0.4271   0.2187   0.9271
Er64     Er     0.3229   0.2187   0.8229
Er65     Er     0.5729   0.1771   0.4687
Er66     Er     0.6771   0.0729   0.4687
V67     V     0.6306   0.3097   0.4403
V68     V     0.6903   0.1903   0.3806
V69     V     0.6903   0.3694   0.5597
V70     V     0.8097   0.3097   0.6194
V71     V     0.8694   0.1903   0.5597
V72     V     0.8097   0.1306   0.4403
Er73     Er     0.5729   0.2813   0.5729
Er74     Er     0.6771   0.2813   0.6771
V75     V     0.4403   0.3097   0.6306
V76     V     0.3806   0.1903   0.6903
V77     V     0.5597   0.1903   0.8694
V78     V     0.6194   0.3097   0.8097
V79     V     0.4403   0.1306   0.8097
V80     V     0.5597   0.3694   0.6903
Er81     Er     0.4687   0.0729   0.6771
Er82     Er     0.4687   0.1771   0.5729
V83     V     0.3806   0.0597   0.5597
V84     V     0.6194   0.9403   0.4403
V85     V     0.5597   0.8806   0.5597
V86     V     0.4403   0.9403   0.6194
V87     V     0.5597   0.0597   0.3806
V88     V     0.4403   0.1194   0.4403
Er89     Er     0.5729   0.9687   0.6771
Er90     Er     0.6771   0.9687   0.5729
V91     V     0.8694   0.0597   0.6903
V92     V     0.6903   0.8806   0.6903
V93     V     0.6903   0.0597   0.8694
V94     V     0.6306   0.9403   0.8097
V95     V     0.8097   0.9403   0.6306
V96     V     0.8097   0.1194   0.8097
Er97     Er     0.2187   0.4271   0.9271
Er98     Er     0.2187   0.3229   0.8229
Er99     Er     0.2187   0.8229   0.3229
Er100     Er     0.2187   0.9271   0.4271
Er101     Er     0.4271   0.9271   0.2187
Er102     Er     0.3229   0.8229   0.2187
V103     V     0.3097   0.1194   0.3097
V104     V     0.3694   0.0597   0.1903
V105     V     0.1903   0.0597   0.3694
V106     V     0.1903   0.8806   0.1903
V107     V     0.1306   0.9403   0.3097
V108     V     0.3097   0.9403   0.1306
V109     V     0.3097   0.4403   0.6306
V110     V     0.3694   0.5597   0.6903
V111     V     0.3097   0.6194   0.8097
V112     V     0.1903   0.5597   0.8694
V113     V     0.1306   0.4403   0.8097
V114     V     0.1903   0.3806   0.6903
Er115     Er     0.2813   0.6771   0.6771
Er116     Er     0.2813   0.5729   0.5729
V117     V     0.3097   0.6306   0.4403
V118     V     0.1903   0.6903   0.3806
V119     V     0.3694   0.6903   0.5597
V120     V     0.3097   0.8097   0.6194
V121     V     0.1903   0.8694   0.5597
V122     V     0.1306   0.8097   0.4403
Er123     Er     0.0729   0.6771   0.4687
Er124     Er     0.1771   0.5729   0.4687
V125     V     0.0597   0.3806   0.5597
V126     V     0.9403   0.4403   0.6194
V127     V     0.0597   0.5597   0.3806
V128     V     0.9403   0.6194   0.4403
V129     V     0.8806   0.5597   0.5597
V130     V     0.1194   0.4403   0.4403
Er131     Er     0.9687   0.6771   0.5729
Er132     Er     0.9687   0.5729   0.6771
V133     V     0.0597   0.6903   0.8694
V134     V     0.8806   0.6903   0.6903
V135     V     0.0597   0.8694   0.6903
V136     V     0.9403   0.8097   0.6306
V137     V     0.9403   0.6306   0.8097
V138     V     0.1194   0.8097   0.8097
Er139     Er     0.0313   0.8229   0.9271
Er140     Er     0.0313   0.9271   0.8229
Er141     Er     0.9271   0.0313   0.8229
Er142     Er     0.8229   0.0313   0.9271
Er143     Er     0.8229   0.9271   0.0313
Er144     Er     0.9271   0.8229   0.0313
V145     V     0.0597   0.0597   0.8806
V146     V     0.9403   0.1194   0.9403
V147     V     0.0597   0.8806   0.0597
V148     V     0.1194   0.9403   0.9403
V149     V     0.8806   0.0597   0.0597
V150     V     0.9403   0.9403   0.1194
V151     V     0.6903   0.8694   0.0597
V152     V     0.8694   0.6903   0.0597
V153     V     0.6903   0.6903   0.8806
V154     V     0.6306   0.8097   0.9403
V155     V     0.8097   0.6306   0.9403
V156     V     0.8097   0.8097   0.1194
Er157     Er     0.5729   0.6771   0.9687
Er158     Er     0.6771   0.5729   0.9687
V159     V     0.4403   0.6194   0.9403
V160     V     0.4403   0.4403   0.1194
V161     V     0.3806   0.5597   0.0597
V162     V     0.5597   0.3806   0.0597
V163     V     0.6194   0.4403   0.9403
V164     V     0.5597   0.5597   0.8806
Er165     Er     0.4687   0.5729   0.1771
Er166     Er     0.4687   0.6771   0.0729
V167     V     0.4403   0.6306   0.3097
V168     V     0.5597   0.6903   0.3694
V169     V     0.3806   0.6903   0.1903
V170     V     0.5597   0.8694   0.1903
V171     V     0.6194   0.8097   0.3097
V172     V     0.4403   0.8097   0.1306
Er173     Er     0.6771   0.6771   0.2813
Er174     Er     0.5729   0.5729   0.2813
Er175     Er     0.5729   0.4687   0.1771
Er176     Er     0.6771   0.4687   0.0729
V177     V     0.6306   0.4403   0.3097
V178     V     0.6903   0.3806   0.1903
V179     V     0.8097   0.6194   0.3097
V180     V     0.8694   0.5597   0.1903
V181     V     0.8097   0.4403   0.1306
V182     V     0.6903   0.5597   0.3694
Er183     Er     0.8229   0.3229   0.2187
Er184     Er     0.9271   0.4271   0.2187
Er185     Er     0.8229   0.2187   0.3229
Er186     Er     0.9271   0.2187   0.4271
V187     V     0.1194   0.3097   0.3097
V188     V     0.0597   0.1903   0.3694
V189     V     0.0597   0.3694   0.1903
V190     V     0.8806   0.1903   0.1903
V191     V     0.9403   0.3097   0.1306
V192     V     0.9403   0.1306   0.3097
loop_
_geom_bond_atom_site_label_1
_geom_bond_atom_site_label_2
_geom_bond_distance
_geom_bond_site_symmetry_2
_ccdc_geom_bond_type
Er1     Er2    10.003   .     S
Er1     V69    10.011   .     S
Er1     V67    10.011   .     S
Er1     V182    10.011   .     S
Er1     V177    10.011   .     S
Er1     Er52    10.017   .     S
Er1     Er56    10.017   .     S
Er2     V68    10.011   .     S
Er2     V67    10.011   .     S
Er2     V178    10.011   .     S
Er2     V177    10.011   .     S
Er2     Er183    10.017   .     S
Er2     Er185    10.017   .     S
Er3     Er4    10.003   .     S
Er3     V156    10.011   .     S
Er3     V152    10.011   .     S
Er3     V179    10.011   .     S
Er3     V180    10.011   .     S
Er3     Er26    10.017   .     S
Er3     Er173    10.017   .     S
Er4     V155    10.011   1_554     S
Er4     V152    10.011   .     S
Er4     V181    10.011   .     S
Er4     V180    10.011   .     S
Er4     Er176    10.017   .     S
Er4     Er158    10.017   1_554     S
Er5     Er6    10.003   .     S
Er5     V87    10.011   .     S
Er5     V88    10.011   .     S
Er5     V104    10.011   .     S
Er5     V103    10.011   .     S
Er5     Er101    10.017   1_545     S
Er5     Er48    10.017   1_545     S
Er6     V83    10.011   .     S
Er6     V88    10.011   .     S
Er6     V105    10.011   .     S
Er6     V103    10.011   .     S
Er6     Er43    10.017   1_545     S
Er6     Er100    10.017   1_545     S
Er7     Er8    10.003   .     S
Er7     V125    10.011   .     S
Er7     V130    10.011   .     S
Er7     V188    10.011   .     S
Er7     V187    10.011   .     S
Er7     Er186    10.017   1_455     S
Er7     Er55    10.017   1_455     S
Er8     V127    10.011   .     S
Er8     V130    10.011   .     S
Er8     V189    10.011   .     S
Er8     V187    10.011   .     S
Er8     Er51    10.017   1_455     S
Er8     Er184    10.017   1_455     S
Er9     Er10    10.003   .     S
Er9     V118    10.011   .     S
Er9     V117    10.011   .     S
Er9     V169    10.011   .     S
Er9     V167    10.011   .     S
Er9     Er102    10.017   .     S
Er9     Er99    10.017   .     S
Er10     V119    10.011   .     S
Er10     V117    10.011   .     S
Er10     V168    10.011   .     S
Er10     V167    10.011   .     S
Er10     Er47    10.017   .     S
Er10     Er44    10.017   .     S
Er11     Er12    10.003   .     S
Er11     V76    10.011   .     S
Er11     V75    10.011   .     S
Er11     V114    10.011   .     S
Er11     V109    10.011   .     S
Er11     Er64    10.017   .     S
Er11     Er98    10.017   .     S
Er12     V80    10.011   .     S
Er12     V75    10.011   .     S
Er12     V110    10.011   .     S
Er12     V109    10.011   .     S
Er12     Er34    10.017   .     S
Er12     Er39    10.017   .     S
Er13     Er14    10.003   .     S
Er13     V113    10.011   .     S
Er13     V114    10.011   .     S
Er13     V126    10.011   1_455     S
Er13     V125    10.011   .     S
Er13     Er132    10.017   1_455     S
Er13     Er37    10.017   .     S
Er14     V109    10.011   .     S
Er14     V114    10.011   .     S
Er14     V130    10.011   .     S
Er14     V125    10.011   .     S
Er14     Er116    10.017   .     S
Er14     Er124    10.017   .     S
Er15     Er16    10.003   .     S
Er15     V59    10.011   .     S
Er15     V58    10.011   .     S
Er15     V103    10.011   .     S
Er15     V104    10.011   .     S
Er15     Er19    10.017   .     S
Er15     Er17    10.017   .     S
Er16     V62    10.011   1_554     S
Er16     V58    10.011   .     S
Er16     V108    10.011   1_545     S
Er16     V104    10.011   .     S
Er16     Er45    10.017   1_554     S
Er16     Er23    10.017   1_545     S
Er17     Er18    10.003   .     S
Er17     V103    10.011   .     S
Er17     V105    10.011   .     S
Er17     V187    10.011   .     S
Er17     V188    10.011   .     S
Er17     Er19    10.017   .     S
Er18     V107    10.011   1_545     S
Er18     V105    10.011   .     S
Er18     V192    10.011   1_455     S
Er18     V188    10.011   .     S
Er18     Er24    10.017   1_545     S
Er18     Er28    10.017   1_455     S
Er19     Er20    10.003   .     S
Er19     V59    10.011   .     S
Er19     V60    10.011   .     S
Er19     V187    10.011   .     S
Er19     V189    10.011   .     S
Er20     V57    10.011   1_554     S
Er20     V60    10.011   .     S
Er20     V191    10.011   1_455     S
Er20     V189    10.011   .     S
Er20     Er46    10.017   1_554     S
Er20     Er27    10.017   1_455     S
Er21     Er22    10.003   .     S
Er21     V60    10.011   .     S
Er21     V59    10.011   .     S
Er21     V161    10.011   .     S
Er21     V160    10.011   .     S
Er21     Er97    10.017   1_554     S
Er21     Er40    10.017   1_554     S
Er22     V58    10.011   .     S
Er22     V59    10.011   .     S
Er22     V162    10.011   .     S
Er22     V160    10.011   .     S
Er22     Er33    10.017   1_554     S
Er22     Er63    10.017   1_554     S
Er23     Er24    10.003   .     S
Er23     V108    10.011   .     S
Er23     V106    10.011   .     S
Er23     V148    10.011   1_554     S
Er23     V147    10.011   .     S
Er23     Er16    10.017   1_565     S
Er23     Er45    10.017   1_564     S
Er24     V107    10.011   .     S
Er24     V106    10.011   .     S
Er24     V150    10.011   1_455     S
Er24     V147    10.011   .     S
Er24     Er18    10.017   1_565     S
Er24     Er28    10.017   1_465     S
Er25     Er26    10.003   .     S
Er25     V154    10.011   1_554     S
Er25     V151    10.011   .     S
Er25     V172    10.011   .     S
Er25     V170    10.011   .     S
Er25     Er166    10.017   .     S
Er25     Er157    10.017   1_554     S
Er26     V156    10.011   .     S
Er26     V151    10.011   .     S
Er26     V171    10.011   .     S
Er26     V170    10.011   .     S
Er26     Er173    10.017   .     S
Er27     Er28    10.003   .     S
Er27     V146    10.011   1_554     S
Er27     V149    10.011   .     S
Er27     V191    10.011   .     S
Er27     V190    10.011   .     S
Er27     Er20    10.017   1_655     S
Er27     Er46    10.017   1_654     S
Er28     V150    10.011   1_545     S
Er28     V149    10.011   .     S
Er28     V192    10.011   .     S
Er28     V190    10.011   .     S
Er28     Er18    10.017   1_655     S
Er28     Er24    10.017   1_645     S
Er29     Er30    10.003   .     S
Er29     V79    10.011   .     S
Er29     V77    10.011   .     S
Er29     V94    10.011   1_545     S
Er29     V93    10.011   .     S
Er29     Er81    10.017   .     S
Er29     Er89    10.017   1_545     S
Er30     V78    10.011   .     S
Er30     V77    10.011   .     S
Er30     V96    10.011   .     S
Er30     V93    10.011   .     S
Er30     Er31    10.017   .     S
Er30     Er74    10.017   .     S
Er31     Er32    10.003   .     S
Er31     V70    10.011   .     S
Er31     V71    10.011   .     S
Er31     V96    10.011   .     S
Er31     V91    10.011   .     S
Er31     Er74    10.017   .     S
Er32     V72    10.011   .     S
Er32     V71    10.011   .     S
Er32     V95    10.011   1_545     S
Er32     V91    10.011   .     S
Er32     Er66    10.017   .     S
Er32     Er90    10.017   1_545     S
Er33     Er34    10.003   .     S
Er33     V77    10.011   .     S
Er33     V78    10.011   .     S
Er33     V162    10.011   1_556     S
Er33     V163    10.011   .     S
Er33     Er22    10.017   1_556     S
Er33     Er63    10.017   .     S
Er34     V80    10.011   .     S
Er34     V78    10.011   .     S
Er34     V164    10.011   .     S
Er34     V163    10.011   .     S
Er34     Er39    10.017   .     S
Er35     Er36    10.003   .     S
Er35     V122    10.011   .     S
Er35     V121    10.011   .     S
Er35     V136    10.011   1_455     S
Er35     V135    10.011   .     S
Er35     Er123    10.017   .     S
Er35     Er131    10.017   1_455     S
Er36     V120    10.011   .     S
Er36     V121    10.011   .     S
Er36     V138    10.011   .     S
Er36     V135    10.011   .     S
Er36     Er115    10.017   .     S
Er36     Er38    10.017   .     S
Er37     Er38    10.003   .     S
Er37     V113    10.011   .     S
Er37     V112    10.011   .     S
Er37     V137    10.011   1_455     S
Er37     V133    10.011   .     S
Er37     Er132    10.017   1_455     S
Er38     V111    10.011   .     S
Er38     V112    10.011   .     S
Er38     V138    10.011   .     S
Er38     V133    10.011   .     S
Er38     Er115    10.017   .     S
Er39     Er40    10.003   .     S
Er39     V110    10.011   .     S
Er39     V111    10.011   .     S
Er39     V164    10.011   .     S
Er39     V159    10.011   .     S
Er40     V112    10.011   .     S
Er40     V111    10.011   .     S
Er40     V161    10.011   1_556     S
Er40     V159    10.011   .     S
Er40     Er97    10.017   .     S
Er40     Er21    10.017   1_556     S
Er41     Er42    10.003   .     S
Er41     V93    10.011   1_565     S
Er41     V94    10.011   .     S
Er41     V151    10.011   1_556     S
Er41     V154    10.011   .     S
Er41     Er143    10.017   1_556     S
Er41     Er142    10.017   1_565     S
Er42     V92    10.011   .     S
Er42     V94    10.011   .     S
Er42     V153    10.011   .     S
Er42     V154    10.011   .     S
Er42     Er54    10.017   .     S
Er42     Er49    10.017   .     S
Er43     Er44    10.003   .     S
Er43     V83    10.011   1_565     S
Er43     V86    10.011   .     S
Er43     V121    10.011   .     S
Er43     V120    10.011   .     S
Er43     Er100    10.017   .     S
Er43     Er6    10.017   1_565     S
Er44     V85    10.011   .     S
Er44     V86    10.011   .     S
Er44     V119    10.011   .     S
Er44     V120    10.011   .     S
Er44     Er47    10.017   .     S
Er45     Er46    10.003   .     S
Er45     V62    10.011   .     S
Er45     V61    10.011   .     S
Er45     V148    10.011   1_545     S
Er45     V145    10.011   .     S
Er45     Er16    10.017   1_556     S
Er45     Er23    10.017   1_546     S
Er46     V57    10.011   .     S
Er46     V61    10.011   .     S
Er46     V146    10.011   1_455     S
Er46     V145    10.011   .     S
Er46     Er20    10.017   1_556     S
Er46     Er27    10.017   1_456     S
Er47     Er48    10.003   .     S
Er47     V85    10.011   .     S
Er47     V84    10.011   .     S
Er47     V168    10.011   .     S
Er47     V171    10.011   .     S
Er48     V87    10.011   1_565     S
Er48     V84    10.011   .     S
Er48     V170    10.011   .     S
Er48     V171    10.011   .     S
Er48     Er101    10.017   .     S
Er48     Er5    10.017   1_565     S
Er49     Er50    10.003   .     S
Er49     V134    10.011   .     S
Er49     V137    10.011   .     S
Er49     V153    10.011   .     S
Er49     V155    10.011   .     S
Er49     Er54    10.017   .     S
Er50     V133    10.011   1_655     S
Er50     V137    10.011   .     S
Er50     V152    10.011   1_556     S
Er50     V155    10.011   .     S
Er50     Er144    10.017   1_556     S
Er50     Er139    10.017   1_655     S
Er51     Er52    10.003   .     S
Er51     V127    10.011   1_655     S
Er51     V128    10.011   .     S
Er51     V180    10.011   .     S
Er51     V179    10.011   .     S
Er51     Er8    10.017   1_655     S
Er51     Er184    10.017   .     S
Er52     V129    10.011   .     S
Er52     V128    10.011   .     S
Er52     V182    10.011   .     S
Er52     V179    10.011   .     S
Er52     Er56    10.017   .     S
Er53     Er54    10.003   .     S
Er53     V91    10.011   1_565     S
Er53     V95    10.011   .     S
Er53     V135    10.011   1_655     S
Er53     V136    10.011   .     S
Er53     Er140    10.017   1_655     S
Er53     Er141    10.017   1_565     S
Er54     V92    10.011   .     S
Er54     V95    10.011   .     S
Er54     V134    10.011   .     S
Er54     V136    10.011   .     S
Er55     Er56    10.003   .     S
Er55     V71    10.011   .     S
Er55     V70    10.011   .     S
Er55     V125    10.011   1_655     S
Er55     V126    10.011   .     S
Er55     Er186    10.017   .     S
Er55     Er7    10.017   1_655     S
Er56     V69    10.011   .     S
Er56     V70    10.011   .     S
Er56     V129    10.011   .     S
Er56     V126    10.011   .     S
V57     Er20    10.011   1_556     S
V57     Er98    10.011   .     S
V57     Er97    10.011   .     S
V57     V60    9.936   1_556     S
V57     V61    9.936   .     S
V58     Er63    10.011   1_554     S
V58     V59    9.936   .     S
V58     V62    9.936   1_554     S
V59     V60    9.936   .     S
V60     Er97    10.011   1_554     S
V60     V57    9.936   1_554     S
V61     Er98    10.011   .     S
V61     Er64    10.011   .     S
V61     V62    9.936   .     S
V62     Er16    10.011   1_556     S
V62     Er64    10.011   .     S
V62     Er63    10.011   .     S
V62     V58    9.936   1_556     S
Er63     V58    10.011   1_556     S
Er63     Er64    10.003   .     S
Er63     V77    10.011   .     S
Er63     V79    10.011   .     S
Er63     Er22    10.017   1_556     S
Er64     V76    10.011   .     S
Er64     V79    10.011   .     S
Er64     Er98    10.017   .     S
Er65     Er66    10.003   .     S
Er65     V67    10.011   .     S
Er65     V68    10.011   .     S
Er65     V88    10.011   .     S
Er65     V87    10.011   .     S
Er65     Er73    10.017   .     S
Er65     Er82    10.017   .     S
Er66     V72    10.011   .     S
Er66     V68    10.011   .     S
Er66     V84    10.011   1_545     S
Er66     V87    10.011   .     S
Er66     Er90    10.017   1_545     S
V67     Er73    10.011   .     S
V67     V68    9.936   .     S
V67     V69    9.936   .     S
V68     Er185    10.011   .     S
V68     V72    9.936   .     S
V69     Er74    10.011   .     S
V69     Er73    10.011   .     S
V69     V70    9.936   .     S
V70     Er74    10.011   .     S
V70     V71    9.936   .     S
V71     Er186    10.011   .     S
V71     V72    9.936   .     S
V72     Er186    10.011   .     S
V72     Er185    10.011   .     S
Er73     Er74    10.003   .     S
Er73     V75    10.011   .     S
Er73     V80    10.011   .     S
Er73     Er82    10.017   .     S
Er74     V78    10.011   .     S
Er74     V80    10.011   .     S
V75     Er82    10.011   .     S
V75     V80    9.936   .     S
V75     V76    9.936   .     S
V76     Er82    10.011   .     S
V76     Er81    10.011   .     S
V76     V79    9.936   .     S
V77     V78    9.936   .     S
V77     V79    9.936   .     S
V78     V80    9.936   .     S
V79     Er81    10.011   .     S
Er81     Er82    10.003   .     S
Er81     V86    10.011   1_545     S
Er81     V83    10.011   .     S
Er81     Er89    10.017   1_545     S
Er82     V88    10.011   .     S
Er82     V83    10.011   .     S
V83     Er43    10.011   1_545     S
V83     V86    9.936   1_545     S
V83     V88    9.936   .     S
V84     Er90    10.011   .     S
V84     Er66    10.011   1_565     S
V84     V87    9.936   1_565     S
V84     V85    9.936   .     S
V85     Er90    10.011   .     S
V85     Er89    10.011   .     S
V85     V86    9.936   .     S
V86     Er89    10.011   .     S
V86     Er81    10.011   1_565     S
V86     V83    9.936   1_565     S
V87     Er48    10.011   1_545     S
V87     V84    9.936   1_545     S
V87     V88    9.936   .     S
Er89     Er90    10.003   .     S
Er89     V94    10.011   .     S
Er89     V92    10.011   .     S
Er89     Er81    10.017   1_565     S
Er89     Er29    10.017   1_565     S
Er90     V95    10.011   .     S
Er90     V92    10.011   .     S
Er90     Er66    10.017   1_565     S
Er90     Er32    10.017   1_565     S
V91     Er141    10.011   .     S
V91     Er53    10.011   1_545     S
V91     V95    9.936   1_545     S
V91     V96    9.936   .     S
V92     V95    9.936   .     S
V92     V94    9.936   .     S
V93     Er142    10.011   .     S
V93     Er41    10.011   1_545     S
V93     V94    9.936   1_545     S
V93     V96    9.936   .     S
V94     Er29    10.011   1_565     S
V94     V93    9.936   1_565     S
V95     Er32    10.011   1_565     S
V95     V91    9.936   1_565     S
V96     Er141    10.011   .     S
V96     Er142    10.011   .     S
Er97     V60    10.011   1_556     S
Er97     Er98    10.003   .     S
Er97     V112    10.011   .     S
Er97     V113    10.011   .     S
Er97     Er21    10.017   1_556     S
Er98     V114    10.011   .     S
Er98     V113    10.011   .     S
Er99     Er100    10.003   .     S
Er99     V106    10.011   .     S
Er99     V107    10.011   .     S
Er99     V118    10.011   .     S
Er99     V122    10.011   .     S
Er99     Er102    10.017   .     S
Er100     V105    10.011   1_565     S
Er100     V107    10.011   .     S
Er100     V121    10.011   .     S
Er100     V122    10.011   .     S
Er100     Er6    10.017   1_565     S
Er101     Er102    10.003   .     S
Er101     V104    10.011   1_565     S
Er101     V108    10.011   .     S
Er101     V170    10.011   .     S
Er101     V172    10.011   .     S
Er101     Er5    10.017   1_565     S
Er102     V106    10.011   .     S
Er102     V108    10.011   .     S
Er102     V169    10.011   .     S
Er102     V172    10.011   .     S
V103     V104    9.936   .     S
V103     V105    9.936   .     S
V104     Er101    10.011   1_545     S
V104     V108    9.936   1_545     S
V105     Er100    10.011   1_545     S
V105     V107    9.936   1_545     S
V106     V108    9.936   .     S
V106     V107    9.936   .     S
V107     Er18    10.011   1_565     S
V107     V105    9.936   1_565     S
V108     Er16    10.011   1_565     S
V108     V104    9.936   1_565     S
V109     Er116    10.011   .     S
V109     V114    9.936   .     S
V109     V110    9.936   .     S
V110     Er116    10.011   .     S
V110     Er115    10.011   .     S
V110     V111    9.936   .     S
V111     Er115    10.011   .     S
V111     V112    9.936   .     S
V112     V113    9.936   .     S
V113     V114    9.936   .     S
Er115     Er116    10.003   .     S
Er115     V120    10.011   .     S
Er115     V119    10.011   .     S
Er116     V117    10.011   .     S
Er116     V119    10.011   .     S
Er116     Er124    10.017   .     S
V117     Er124    10.011   .     S
V117     V119    9.936   .     S
V117     V118    9.936   .     S
V118     Er124    10.011   .     S
V118     Er123    10.011   .     S
V118     V122    9.936   .     S
V119     V120    9.936   .     S
V120     V121    9.936   .     S
V121     V122    9.936   .     S
V122     Er123    10.011   .     S
Er123     Er124    10.003   .     S
Er123     V128    10.011   1_455     S
Er123     V127    10.011   .     S
Er123     Er131    10.017   1_455     S
Er124     V130    10.011   .     S
Er124     V127    10.011   .     S
V125     Er55    10.011   1_455     S
V125     V126    9.936   1_455     S
V125     V130    9.936   .     S
V126     Er13    10.011   1_655     S
V126     Er132    10.011   .     S
V126     V125    9.936   1_655     S
V126     V129    9.936   .     S
V127     Er51    10.011   1_455     S
V127     V128    9.936   1_455     S
V127     V130    9.936   .     S
V128     Er123    10.011   1_655     S
V128     Er131    10.011   .     S
V128     V127    9.936   1_655     S
V128     V129    9.936   .     S
V129     Er131    10.011   .     S
V129     Er132    10.011   .     S
Er131     Er132    10.003   .     S
Er131     V136    10.011   .     S
Er131     V134    10.011   .     S
Er131     Er123    10.017   1_655     S
Er131     Er35    10.017   1_655     S
Er132     V137    10.011   .     S
Er132     V134    10.011   .     S
Er132     Er13    10.017   1_655     S
Er132     Er37    10.017   1_655     S
V133     Er50    10.011   1_455     S
V133     Er139    10.011   .     S
V133     V137    9.936   1_455     S
V133     V138    9.936   .     S
V134     V136    9.936   .     S
V134     V137    9.936   .     S
V135     Er140    10.011   .     S
V135     Er53    10.011   1_455     S
V135     V136    9.936   1_455     S
V135     V138    9.936   .     S
V136     Er35    10.011   1_655     S
V136     V135    9.936   1_655     S
V137     Er37    10.011   1_655     S
V137     V133    9.936   1_655     S
V138     Er139    10.011   .     S
V138     Er140    10.011   .     S
Er139     Er140    10.003   .     S
Er139     V147    10.011   1_556     S
Er139     V148    10.011   .     S
Er139     Er50    10.017   1_455     S
Er139     Er144    10.017   1_456     S
Er140     V145    10.011   1_565     S
Er140     V148    10.011   .     S
Er140     Er53    10.017   1_455     S
Er140     Er141    10.017   1_465     S
Er141     Er142    10.003   .     S
Er141     V145    10.011   1_655     S
Er141     V146    10.011   .     S
Er141     Er53    10.017   1_545     S
Er141     Er140    10.017   1_645     S
Er142     V149    10.011   1_556     S
Er142     V146    10.011   .     S
Er142     Er41    10.017   1_545     S
Er142     Er143    10.017   1_546     S
Er143     Er144    10.003   .     S
Er143     V149    10.011   1_565     S
Er143     V150    10.011   .     S
Er143     V151    10.011   .     S
Er143     V156    10.011   .     S
Er143     Er41    10.017   1_554     S
Er143     Er142    10.017   1_564     S
Er144     V147    10.011   1_655     S
Er144     V150    10.011   .     S
Er144     V152    10.011   .     S
Er144     V156    10.011   .     S
Er144     Er50    10.017   1_554     S
Er144     Er139    10.017   1_654     S
V145     Er141    10.011   1_455     S
V145     Er140    10.011   1_545     S
V145     V148    9.936   1_545     S
V145     V146    9.936   1_455     S
V146     Er27    10.011   1_556     S
V146     Er46    10.011   1_655     S
V146     V145    9.936   1_655     S
V146     V149    9.936   1_556     S
V147     Er144    10.011   1_455     S
V147     Er139    10.011   1_554     S
V147     V150    9.936   1_455     S
V147     V148    9.936   1_554     S
V148     Er23    10.011   1_556     S
V148     Er45    10.011   1_565     S
V148     V145    9.936   1_565     S
V148     V147    9.936   1_556     S
V149     Er142    10.011   1_554     S
V149     Er143    10.011   1_545     S
V149     V146    9.936   1_554     S
V149     V150    9.936   1_545     S
V150     Er28    10.011   1_565     S
V150     Er24    10.011   1_655     S
V150     V147    9.936   1_655     S
V150     V149    9.936   1_565     S
V151     Er41    10.011   1_554     S
V151     V154    9.936   1_554     S
V151     V156    9.936   .     S
V152     Er50    10.011   1_554     S
V152     V155    9.936   1_554     S
V152     V156    9.936   .     S
V153     Er158    10.011   .     S
V153     Er157    10.011   .     S
V153     V155    9.936   .     S
V153     V154    9.936   .     S
V154     Er157    10.011   .     S
V154     Er25    10.011   1_556     S
V154     V151    9.936   1_556     S
V155     Er4    10.011   1_556     S
V155     Er158    10.011   .     S
V155     V152    9.936   1_556     S
Er157     Er158    10.003   .     S
Er157     V159    10.011   .     S
Er157     V164    10.011   .     S
Er157     Er166    10.017   1_556     S
Er157     Er25    10.017   1_556     S
Er158     V163    10.011   .     S
Er158     V164    10.011   .     S
Er158     Er176    10.017   1_556     S
Er158     Er4    10.017   1_556     S
V159     Er166    10.011   1_556     S
V159     V164    9.936   .     S
V159     V161    9.936   1_556     S
V160     Er175    10.011   .     S
V160     Er165    10.011   .     S
V160     V161    9.936   .     S
V160     V162    9.936   .     S
V161     Er40    10.011   1_554     S
V161     Er166    10.011   .     S
V161     Er165    10.011   .     S
V161     V159    9.936   1_554     S
V162     Er176    10.011   .     S
V162     Er175    10.011   .     S
V162     Er33    10.011   1_554     S
V162     V163    9.936   1_554     S
V163     Er176    10.011   1_556     S
V163     V162    9.936   1_556     S
V163     V164    9.936   .     S
Er165     Er166    10.003   .     S
Er165     V167    10.011   .     S
Er165     V169    10.011   .     S
Er165     Er174    10.017   .     S
Er165     Er175    10.017   .     S
Er166     V159    10.011   1_554     S
Er166     V172    10.011   .     S
Er166     V169    10.011   .     S
Er166     Er157    10.017   1_554     S
V167     Er174    10.011   .     S
V167     V169    9.936   .     S
V167     V168    9.936   .     S
V168     Er173    10.011   .     S
V168     Er174    10.011   .     S
V168     V171    9.936   .     S
V169     V172    9.936   .     S
V170     V172    9.936   .     S
V170     V171    9.936   .     S
V171     Er173    10.011   .     S
Er173     Er174    10.003   .     S
Er173     V179    10.011   .     S
Er173     V182    10.011   .     S
Er174     V177    10.011   .     S
Er174     V182    10.011   .     S
Er174     Er175    10.017   .     S
Er175     Er176    10.003   .     S
Er175     V177    10.011   .     S
Er175     V178    10.011   .     S
Er176     V163    10.011   1_554     S
Er176     V181    10.011   .     S
Er176     V178    10.011   .     S
Er176     Er158    10.017   1_554     S
V177     V182    9.936   .     S
V177     V178    9.936   .     S
V178     Er183    10.011   .     S
V178     V181    9.936   .     S
V179     V180    9.936   .     S
V179     V182    9.936   .     S
V180     Er184    10.011   .     S
V180     V181    9.936   .     S
V181     Er184    10.011   .     S
V181     Er183    10.011   .     S
Er183     Er184    10.003   .     S
Er183     V190    10.011   .     S
Er183     V191    10.011   .     S
Er183     Er185    10.017   .     S
Er184     V189    10.011   1_655     S
Er184     V191    10.011   .     S
Er184     Er8    10.017   1_655     S
Er185     Er186    10.003   .     S
Er185     V190    10.011   .     S
Er185     V192    10.011   .     S
Er186     V188    10.011   1_655     S
Er186     V192    10.011   .     S
Er186     Er7    10.017   1_655     S
V187     V188    9.936   .     S
V187     V189    9.936   .     S
V188     Er186    10.011   1_455     S
V188     V192    9.936   1_455     S
V189     Er184    10.011   1_455     S
V189     V191    9.936   1_455     S
V190     V191    9.936   .     S
V190     V192    9.936   .     S
V191     Er20    10.011   1_655     S
V191     V189    9.936   1_655     S
V192     Er18    10.011   1_655     S
V192     V188    9.936   1_655     S
