data_dnaa
_audit_creation_date              2020-02-02
_audit_creation_method            'Pymatgen'
_symmetry_space_group_name_H-M    'P1'
_symmetry_Int_Tables_number       1
loop_
_symmetry_equiv_pos_as_xyz
  x,y,z
_cell_length_a                    119.8415
_cell_length_b                    119.8415
_cell_length_c                    119.8415
_cell_angle_alpha                 90.0
_cell_angle_beta                 90.0
_cell_angle_gamma                 90.0
loop_
_atom_site_label
_atom_site_type_symbol
_atom_site_fract_x
_atom_site_fract_y
_atom_site_fract_z
V1     V     0.1759   0.3796   0.1759
Er2     Er     0.1706   0.4324   0.1116
Er3     Er     0.1116   0.4324   0.1706
Ti4     Ti     0.2143   0.3163   0.2143
V5     V     0.3241   0.3241   0.1204
Er6     Er     0.3294   0.3884   0.0676
Er7     Er     0.3884   0.3294   0.0676
Ti8     Ti     0.2857   0.2857   0.1837
V9     V     0.3796   0.1759   0.1759
Er10     Er     0.4324   0.1116   0.1706
Er11     Er     0.4324   0.1706   0.1116
Ti12     Ti     0.3163   0.2143   0.2143
V13     V     0.1204   0.3241   0.3241
Er14     Er     0.0676   0.3294   0.3884
Er15     Er     0.0676   0.3884   0.3294
Ti16     Ti     0.1837   0.2857   0.2857
V17     V     0.3241   0.1204   0.3241
Er18     Er     0.3884   0.0676   0.3294
Er19     Er     0.3294   0.0676   0.3884
Ti20     Ti     0.2857   0.1837   0.2857
V21     V     0.1759   0.1759   0.3796
Er22     Er     0.1116   0.1706   0.4324
Er23     Er     0.1706   0.1116   0.4324
Ti24     Ti     0.2143   0.2143   0.3163
V25     V     0.3241   0.3241   0.8796
Er26     Er     0.3884   0.3294   0.9324
Er27     Er     0.3294   0.3884   0.9324
Ti28     Ti     0.2857   0.2857   0.8163
V29     V     0.1204   0.3241   0.6759
Er30     Er     0.0676   0.3294   0.6116
Er31     Er     0.0676   0.3884   0.6706
Ti32     Ti     0.1837   0.2857   0.7143
V33     V     0.1759   0.3796   0.8241
Er34     Er     0.1706   0.4324   0.8884
Er35     Er     0.1116   0.4324   0.8294
Ti36     Ti     0.2143   0.3163   0.7857
V37     V     0.1759   0.1759   0.6204
Er38     Er     0.1706   0.1116   0.5676
Er39     Er     0.1116   0.1706   0.5676
Ti40     Ti     0.2143   0.2143   0.6837
V41     V     0.3241   0.1204   0.6759
Er42     Er     0.3294   0.0676   0.6116
Er43     Er     0.3884   0.0676   0.6706
Ti44     Ti     0.2857   0.1837   0.7143
V45     V     0.3796   0.1759   0.8241
Er46     Er     0.4324   0.1706   0.8884
Er47     Er     0.4324   0.1116   0.8294
Ti48     Ti     0.3163   0.2143   0.7857
V49     V     0.3241   0.8796   0.3241
Er50     Er     0.3294   0.9324   0.3884
Er51     Er     0.3884   0.9324   0.3294
Ti52     Ti     0.2857   0.8163   0.2857
V53     V     0.3241   0.6759   0.1204
Er54     Er     0.3294   0.6116   0.0676
Er55     Er     0.3884   0.6706   0.0676
Ti56     Ti     0.2857   0.7143   0.1837
V57     V     0.3796   0.8241   0.1759
Er58     Er     0.4324   0.8884   0.1706
Er59     Er     0.4324   0.8294   0.1116
Ti60     Ti     0.3163   0.7857   0.2143
V61     V     0.1759   0.6204   0.1759
Er62     Er     0.1706   0.5676   0.1116
Er63     Er     0.1116   0.5676   0.1706
Ti64     Ti     0.2143   0.6837   0.2143
V65     V     0.1204   0.6759   0.3241
Er66     Er     0.0676   0.6116   0.3294
Er67     Er     0.0676   0.6706   0.3884
Ti68     Ti     0.1837   0.7143   0.2857
V69     V     0.1759   0.8241   0.3796
Er70     Er     0.1706   0.8884   0.4324
Er71     Er     0.1116   0.8294   0.4324
Ti72     Ti     0.2143   0.7857   0.3163
Ce73     Ce     0.2083   0.0417   0.5417
Ce74     Ce     0.2083   0.0417   0.4583
Ce75     Ce     0.2917   0.9583   0.5417
Ce76     Ce     0.2917   0.0417   0.5417
Ce77     Ce     0.2917   0.9583   0.4583
Ce78     Ce     0.2917   0.0417   0.4583
Ce79     Ce     0.2083   0.9583   0.5417
Ce80     Ce     0.2083   0.9583   0.4583
Ce81     Ce     0.2083   0.5417   0.0417
Ce82     Ce     0.2083   0.4583   0.0417
Ce83     Ce     0.2917   0.4583   0.9583
Ce84     Ce     0.2917   0.4583   0.0417
Ce85     Ce     0.2917   0.5417   0.9583
Ce86     Ce     0.2917   0.5417   0.0417
Ce87     Ce     0.2083   0.5417   0.9583
Ce88     Ce     0.2083   0.4583   0.9583
V89     V     0.1204   0.6759   0.6759
Er90     Er     0.0676   0.6706   0.6116
Er91     Er     0.0676   0.6116   0.6706
Ti92     Ti     0.1837   0.7143   0.7143
V93     V     0.3241   0.8796   0.6759
Er94     Er     0.3294   0.9324   0.6116
Er95     Er     0.3884   0.9324   0.6706
Ti96     Ti     0.2857   0.8163   0.7143
V97     V     0.1759   0.8241   0.6204
Er98     Er     0.1706   0.8884   0.5676
Er99     Er     0.1116   0.8294   0.5676
Ti100     Ti     0.2143   0.7857   0.6837
V101     V     0.3796   0.8241   0.8241
Er102     Er     0.4324   0.8884   0.8294
Er103     Er     0.4324   0.8294   0.8884
Ti104     Ti     0.3163   0.7857   0.7857
V105     V     0.3241   0.6759   0.8796
Er106     Er     0.3294   0.6116   0.9324
Er107     Er     0.3884   0.6706   0.9324
Ti108     Ti     0.2857   0.7143   0.8163
V109     V     0.1759   0.6204   0.8241
Er110     Er     0.1706   0.5676   0.8884
Er111     Er     0.1116   0.5676   0.8294
Ti112     Ti     0.2143   0.6837   0.7857
V113     V     0.8796   0.3241   0.3241
Er114     Er     0.9324   0.3884   0.3294
Er115     Er     0.9324   0.3294   0.3884
Ti116     Ti     0.8163   0.2857   0.2857
V117     V     0.6759   0.1204   0.3241
Er118     Er     0.6116   0.0676   0.3294
Er119     Er     0.6706   0.0676   0.3884
Ti120     Ti     0.7143   0.1837   0.2857
V121     V     0.8241   0.1759   0.3796
Er122     Er     0.8884   0.1706   0.4324
Er123     Er     0.8294   0.1116   0.4324
Ti124     Ti     0.7857   0.2143   0.3163
V125     V     0.6204   0.1759   0.1759
Er126     Er     0.5676   0.1706   0.1116
Er127     Er     0.5676   0.1116   0.1706
Ti128     Ti     0.6837   0.2143   0.2143
V129     V     0.6759   0.3241   0.1204
Er130     Er     0.6116   0.3294   0.0676
Er131     Er     0.6706   0.3884   0.0676
Ti132     Ti     0.7143   0.2857   0.1837
V133     V     0.8241   0.3796   0.1759
Er134     Er     0.8884   0.4324   0.1706
Er135     Er     0.8294   0.4324   0.1116
Ti136     Ti     0.7857   0.3163   0.2143
Ce137     Ce     0.0417   0.5417   0.2083
Ce138     Ce     0.0417   0.4583   0.2083
Ce139     Ce     0.9583   0.5417   0.2917
Ce140     Ce     0.0417   0.5417   0.2917
Ce141     Ce     0.9583   0.4583   0.2917
Ce142     Ce     0.0417   0.4583   0.2917
Ce143     Ce     0.9583   0.5417   0.2083
Ce144     Ce     0.9583   0.4583   0.2083
Ce145     Ce     0.5417   0.0417   0.2083
Ce146     Ce     0.4583   0.0417   0.2083
Ce147     Ce     0.4583   0.9583   0.2917
Ce148     Ce     0.4583   0.0417   0.2917
Ce149     Ce     0.5417   0.9583   0.2917
Ce150     Ce     0.5417   0.0417   0.2917
Ce151     Ce     0.5417   0.9583   0.2083
Ce152     Ce     0.4583   0.9583   0.2083
V153     V     0.6759   0.6759   0.1204
Er154     Er     0.6706   0.6116   0.0676
Er155     Er     0.6116   0.6706   0.0676
Ti156     Ti     0.7143   0.7143   0.1837
V157     V     0.8796   0.6759   0.3241
Er158     Er     0.9324   0.6116   0.3294
Er159     Er     0.9324   0.6706   0.3884
Ti160     Ti     0.8163   0.7143   0.2857
V161     V     0.8241   0.6204   0.1759
Er162     Er     0.8884   0.5676   0.1706
Er163     Er     0.8294   0.5676   0.1116
Ti164     Ti     0.7857   0.6837   0.2143
V165     V     0.8241   0.8241   0.3796
Er166     Er     0.8884   0.8294   0.4324
Er167     Er     0.8294   0.8884   0.4324
Ti168     Ti     0.7857   0.7857   0.3163
V169     V     0.6759   0.8796   0.3241
Er170     Er     0.6116   0.9324   0.3294
Er171     Er     0.6706   0.9324   0.3884
Ti172     Ti     0.7143   0.8163   0.2857
V173     V     0.6204   0.8241   0.1759
Er174     Er     0.5676   0.8884   0.1706
Er175     Er     0.5676   0.8294   0.1116
Ti176     Ti     0.6837   0.7857   0.2143
Ce177     Ce     0.5417   0.0417   0.7917
Ce178     Ce     0.4583   0.0417   0.7917
Ce179     Ce     0.5417   0.9583   0.7083
Ce180     Ce     0.5417   0.0417   0.7083
Ce181     Ce     0.4583   0.9583   0.7083
Ce182     Ce     0.4583   0.0417   0.7083
Ce183     Ce     0.5417   0.9583   0.7917
Ce184     Ce     0.4583   0.9583   0.7917
Ce185     Ce     0.0417   0.7917   0.5417
Ce186     Ce     0.0417   0.7917   0.4583
Ce187     Ce     0.9583   0.7083   0.5417
Ce188     Ce     0.0417   0.7083   0.5417
Ce189     Ce     0.9583   0.7083   0.4583
Ce190     Ce     0.0417   0.7083   0.4583
Ce191     Ce     0.9583   0.7917   0.5417
Ce192     Ce     0.9583   0.7917   0.4583
Ce193     Ce     0.4583   0.7083   0.9583
Ce194     Ce     0.4583   0.7083   0.0417
Ce195     Ce     0.5417   0.7917   0.0417
Ce196     Ce     0.4583   0.7917   0.0417
Ce197     Ce     0.5417   0.7083   0.9583
Ce198     Ce     0.5417   0.7083   0.0417
Ce199     Ce     0.5417   0.7917   0.9583
Ce200     Ce     0.4583   0.7917   0.9583
Ce201     Ce     0.7083   0.9583   0.4583
Ce202     Ce     0.7083   0.0417   0.4583
Ce203     Ce     0.7917   0.0417   0.5417
Ce204     Ce     0.7917   0.0417   0.4583
Ce205     Ce     0.7083   0.9583   0.5417
Ce206     Ce     0.7083   0.0417   0.5417
Ce207     Ce     0.7917   0.9583   0.5417
Ce208     Ce     0.7917   0.9583   0.4583
V209     V     0.6759   0.6759   0.8796
Er210     Er     0.6116   0.6706   0.9324
Er211     Er     0.6706   0.6116   0.9324
Ti212     Ti     0.7143   0.7143   0.8163
V213     V     0.6204   0.8241   0.8241
Er214     Er     0.5676   0.8294   0.8884
Er215     Er     0.5676   0.8884   0.8294
Ti216     Ti     0.6837   0.7857   0.7857
V217     V     0.6759   0.8796   0.6759
Er218     Er     0.6706   0.9324   0.6116
Er219     Er     0.6116   0.9324   0.6706
Ti220     Ti     0.7143   0.8163   0.7143
V221     V     0.8241   0.8241   0.6204
Er222     Er     0.8294   0.8884   0.5676
Er223     Er     0.8884   0.8294   0.5676
Ti224     Ti     0.7857   0.7857   0.6837
V225     V     0.8796   0.6759   0.6759
Er226     Er     0.9324   0.6116   0.6706
Er227     Er     0.9324   0.6706   0.6116
Ti228     Ti     0.8163   0.7143   0.7143
V229     V     0.8241   0.6204   0.8241
Er230     Er     0.8884   0.5676   0.8294
Er231     Er     0.8294   0.5676   0.8884
Ti232     Ti     0.7857   0.6837   0.7857
Ce233     Ce     0.5417   0.2083   0.0417
Ce234     Ce     0.4583   0.2083   0.0417
Ce235     Ce     0.5417   0.2917   0.9583
Ce236     Ce     0.5417   0.2917   0.0417
Ce237     Ce     0.4583   0.2917   0.9583
Ce238     Ce     0.4583   0.2917   0.0417
Ce239     Ce     0.5417   0.2083   0.9583
Ce240     Ce     0.4583   0.2083   0.9583
Ce241     Ce     0.9583   0.4583   0.7083
Ce242     Ce     0.0417   0.4583   0.7083
Ce243     Ce     0.0417   0.5417   0.7917
Ce244     Ce     0.0417   0.4583   0.7917
Ce245     Ce     0.9583   0.5417   0.7083
Ce246     Ce     0.0417   0.5417   0.7083
Ce247     Ce     0.9583   0.5417   0.7917
Ce248     Ce     0.9583   0.4583   0.7917
Ce249     Ce     0.7917   0.5417   0.0417
Ce250     Ce     0.7917   0.4583   0.0417
Ce251     Ce     0.7083   0.5417   0.9583
Ce252     Ce     0.7083   0.5417   0.0417
Ce253     Ce     0.7083   0.4583   0.9583
Ce254     Ce     0.7083   0.4583   0.0417
Ce255     Ce     0.7917   0.5417   0.9583
Ce256     Ce     0.7917   0.4583   0.9583
Ce257     Ce     0.9583   0.2083   0.5417
Ce258     Ce     0.9583   0.2083   0.4583
Ce259     Ce     0.9583   0.2917   0.5417
Ce260     Ce     0.0417   0.2917   0.5417
Ce261     Ce     0.9583   0.2917   0.4583
Ce262     Ce     0.0417   0.2917   0.4583
Ce263     Ce     0.0417   0.2083   0.5417
Ce264     Ce     0.0417   0.2083   0.4583
V265     V     0.8241   0.3796   0.8241
Er266     Er     0.8294   0.4324   0.8884
Er267     Er     0.8884   0.4324   0.8294
Ti268     Ti     0.7857   0.3163   0.7857
V269     V     0.6759   0.3241   0.8796
Er270     Er     0.6116   0.3294   0.9324
Er271     Er     0.6706   0.3884   0.9324
Ti272     Ti     0.7143   0.2857   0.8163
V273     V     0.6204   0.1759   0.8241
Er274     Er     0.5676   0.1706   0.8884
Er275     Er     0.5676   0.1116   0.8294
Ti276     Ti     0.6837   0.2143   0.7857
V277     V     0.6759   0.1204   0.6759
Er278     Er     0.6116   0.0676   0.6706
Er279     Er     0.6706   0.0676   0.6116
Ti280     Ti     0.7143   0.1837   0.7143
V281     V     0.8796   0.3241   0.6759
Er282     Er     0.9324   0.3294   0.6116
Er283     Er     0.9324   0.3884   0.6706
Ti284     Ti     0.8163   0.2857   0.7143
V285     V     0.8241   0.1759   0.6204
Er286     Er     0.8884   0.1706   0.5676
Er287     Er     0.8294   0.1116   0.5676
Ti288     Ti     0.7857   0.2143   0.6837
loop_
_geom_bond_atom_site_label_1
_geom_bond_atom_site_label_2
_geom_bond_distance
_geom_bond_site_symmetry_2
_ccdc_geom_bond_type
V1     Er2    9.998   .     S
V1     Er3    9.998   .     S
V1     Ti4    10.0   .     S
Er2     Er3    10.001   .     S
Er2     Ce82    10.003   .     S
Er3     Ce138    10.003   .     S
Ti4     Ti8    10.002   .     S
Ti4     Ti16    10.002   .     S
V5     Er6    9.998   .     S
V5     Er7    9.998   .     S
V5     Ti8    10.0   .     S
Er6     Er7    10.001   .     S
Er6     Ce84    10.003   .     S
Er7     Ce238    10.003   .     S
Ti8     Ti12    10.002   .     S
V9     Er10    9.998   .     S
V9     Er11    9.998   .     S
V9     Ti12    10.0   .     S
Er10     Er11    10.001   .     S
Er10     Ce146    10.003   .     S
Er11     Ce234    10.003   .     S
Ti12     Ti20    10.002   .     S
V13     Er14    9.998   .     S
V13     Er15    9.998   .     S
V13     Ti16    10.0   .     S
Er14     Er15    10.001   .     S
Er14     Ce262    10.003   .     S
Er15     Ce142    10.003   .     S
Ti16     Ti24    10.002   .     S
V17     Er18    9.998   .     S
V17     Er19    9.998   .     S
V17     Ti20    10.0   .     S
Er18     Er19    10.001   .     S
Er18     Ce148    10.003   .     S
Er19     Ce78    10.003   .     S
Ti20     Ti24    10.002   .     S
V21     Er22    9.998   .     S
V21     Er23    9.998   .     S
V21     Ti24    10.0   .     S
Er22     Er23    10.001   .     S
Er22     Ce264    10.003   .     S
Er23     Ce74    10.003   .     S
V25     Er26    9.998   .     S
V25     Er27    9.998   .     S
V25     Ti28    10.0   .     S
Er26     Er27    10.001   .     S
Er26     Ce237    10.003   .     S
Er27     Ce83    10.003   .     S
Ti28     Ti36    10.002   .     S
Ti28     Ti48    10.002   .     S
V29     Er31    9.998   .     S
V29     Er30    9.998   .     S
V29     Ti32    10.0   .     S
Er30     Er31    10.001   .     S
Er30     Ce260    10.003   .     S
Er31     Ce242    10.003   .     S
Ti32     Ti40    10.002   .     S
Ti32     Ti36    10.002   .     S
V33     Er35    9.998   .     S
V33     Er34    9.998   .     S
V33     Ti36    10.0   .     S
Er34     Er35    10.001   .     S
Er34     Ce88    10.003   .     S
Er35     Ce244    10.003   .     S
V37     Er38    9.998   .     S
V37     Er39    9.998   .     S
V37     Ti40    10.0   .     S
Er38     Er39    10.001   .     S
Er38     Ce73    10.003   .     S
Er39     Ce263    10.003   .     S
Ti40     Ti44    10.002   .     S
V41     Er43    9.998   .     S
V41     Er42    9.998   .     S
V41     Ti44    10.0   .     S
Er42     Er43    10.001   .     S
Er42     Ce76    10.003   .     S
Er43     Ce182    10.003   .     S
Ti44     Ti48    10.002   .     S
V45     Er47    9.998   .     S
V45     Er46    9.998   .     S
V45     Ti48    10.0   .     S
Er46     Er47    10.001   .     S
Er46     Ce240    10.003   .     S
Er47     Ce178    10.003   .     S
V49     Er50    9.998   .     S
V49     Er51    9.998   .     S
V49     Ti52    10.0   .     S
Er50     Er51    10.001   .     S
Er50     Ce77    10.003   .     S
Er51     Ce147    10.003   .     S
Ti52     Ti60    10.002   .     S
Ti52     Ti72    10.002   .     S
V53     Er55    9.998   .     S
V53     Er54    9.998   .     S
V53     Ti56    10.0   .     S
Er54     Er55    10.001   .     S
Er54     Ce86    10.003   .     S
Er55     Ce194    10.003   .     S
Ti56     Ti64    10.002   .     S
Ti56     Ti60    10.002   .     S
V57     Er59    9.998   .     S
V57     Er58    9.998   .     S
V57     Ti60    10.0   .     S
Er58     Er59    10.001   .     S
Er58     Ce152    10.003   .     S
Er59     Ce196    10.003   .     S
V61     Er63    9.998   .     S
V61     Er62    9.998   .     S
V61     Ti64    10.0   .     S
Er62     Er63    10.001   .     S
Er62     Ce81    10.003   .     S
Er63     Ce137    10.003   .     S
Ti64     Ti68    10.002   .     S
V65     Er67    9.998   .     S
V65     Er66    9.998   .     S
V65     Ti68    10.0   .     S
Er66     Er67    10.001   .     S
Er66     Ce140    10.003   .     S
Er67     Ce190    10.003   .     S
Ti68     Ti72    10.002   .     S
V69     Er71    9.998   .     S
V69     Er70    9.998   .     S
V69     Ti72    10.0   .     S
Er70     Er71    10.001   .     S
Er70     Ce80    10.003   .     S
Er71     Ce186    10.003   .     S
Ce73     Ce74    9.997   .     S
Ce73     Ce76    9.997   .     S
Ce73     Ce79    10.002   1_545     S
Ce74     Ce78    9.997   .     S
Ce74     Ce80    10.002   1_545     S
Ce75     Ce76    9.997   1_565     S
Ce75     Ce79    9.997   .     S
Ce75     Ce77    10.002   .     S
Ce75     Er94    10.003   .     S
Ce76     Ce75    9.997   1_545     S
Ce76     Ce78    10.002   .     S
Ce77     Ce78    9.997   1_565     S
Ce77     Ce80    9.997   .     S
Ce78     Ce77    9.997   1_545     S
Ce79     Ce80    9.997   .     S
Ce79     Ce73    10.002   1_565     S
Ce79     Er98    10.003   .     S
Ce80     Ce74    10.002   1_565     S
Ce81     Ce82    9.997   .     S
Ce81     Ce86    9.997   .     S
Ce81     Ce87    10.002   1_554     S
Ce82     Ce84    9.997   .     S
Ce82     Ce88    10.002   1_554     S
Ce83     Ce84    9.997   1_556     S
Ce83     Ce88    9.997   .     S
Ce83     Ce85    10.002   .     S
Ce84     Ce83    9.997   1_554     S
Ce84     Ce86    10.002   .     S
Ce85     Ce86    9.997   1_556     S
Ce85     Ce87    9.997   .     S
Ce85     Er106    10.003   .     S
Ce86     Ce85    9.997   1_554     S
Ce87     Ce88    9.997   .     S
Ce87     Ce81    10.002   1_556     S
Ce87     Er110    10.003   .     S
Ce88     Ce82    10.002   1_556     S
V89     Er90    9.998   .     S
V89     Er91    9.998   .     S
V89     Ti92    10.0   .     S
Er90     Er91    10.001   .     S
Er90     Ce188    10.003   .     S
Er91     Ce246    10.003   .     S
Ti92     Ti100    10.002   .     S
Ti92     Ti112    10.002   .     S
V93     Er95    9.998   .     S
V93     Er94    9.998   .     S
V93     Ti96    10.0   .     S
Er94     Er95    10.001   .     S
Er95     Ce181    10.003   .     S
Ti96     Ti100    10.002   .     S
Ti96     Ti104    10.002   .     S
V97     Er99    9.998   .     S
V97     Er98    9.998   .     S
V97     Ti100    10.0   .     S
Er98     Er99    10.001   .     S
Er99     Ce185    10.003   .     S
V101     Er102    9.998   .     S
V101     Er103    9.998   .     S
V101     Ti104    10.0   .     S
Er102     Er103    10.001   .     S
Er102     Ce184    10.003   .     S
Er103     Ce200    10.003   .     S
Ti104     Ti108    10.002   .     S
V105     Er107    9.998   .     S
V105     Er106    9.998   .     S
V105     Ti108    10.0   .     S
Er106     Er107    10.001   .     S
Er107     Ce193    10.003   .     S
Ti108     Ti112    10.002   .     S
V109     Er111    9.998   .     S
V109     Er110    9.998   .     S
V109     Ti112    10.0   .     S
Er110     Er111    10.001   .     S
Er111     Ce243    10.003   .     S
V113     Er114    9.998   .     S
V113     Er115    9.998   .     S
V113     Ti116    10.0   .     S
Er114     Er115    10.001   .     S
Er114     Ce141    10.003   .     S
Er115     Ce261    10.003   .     S
Ti116     Ti124    10.002   .     S
Ti116     Ti136    10.002   .     S
V117     Er119    9.998   .     S
V117     Er118    9.998   .     S
V117     Ti120    10.0   .     S
Er118     Er119    10.001   .     S
Er118     Ce150    10.003   .     S
Er119     Ce202    10.003   .     S
Ti120     Ti128    10.002   .     S
Ti120     Ti124    10.002   .     S
V121     Er123    9.998   .     S
V121     Er122    9.998   .     S
V121     Ti124    10.0   .     S
Er122     Er123    10.001   .     S
Er122     Ce258    10.003   .     S
Er123     Ce204    10.003   .     S
V125     Er126    9.998   .     S
V125     Er127    9.998   .     S
V125     Ti128    10.0   .     S
Er126     Er127    10.001   .     S
Er126     Ce233    10.003   .     S
Er127     Ce145    10.003   .     S
Ti128     Ti132    10.002   .     S
V129     Er131    9.998   .     S
V129     Er130    9.998   .     S
V129     Ti132    10.0   .     S
Er130     Er131    10.001   .     S
Er130     Ce236    10.003   .     S
Er131     Ce254    10.003   .     S
Ti132     Ti136    10.002   .     S
V133     Er135    9.998   .     S
V133     Er134    9.998   .     S
V133     Ti136    10.0   .     S
Er134     Er135    10.001   .     S
Er134     Ce144    10.003   .     S
Er135     Ce250    10.003   .     S
Ce137     Ce138    9.997   .     S
Ce137     Ce140    9.997   .     S
Ce137     Ce143    10.002   1_455     S
Ce138     Ce142    9.997   .     S
Ce138     Ce144    10.002   1_455     S
Ce139     Ce140    9.997   1_655     S
Ce139     Ce143    9.997   .     S
Ce139     Ce141    10.002   .     S
Ce139     Er158    10.003   .     S
Ce140     Ce139    9.997   1_455     S
Ce140     Ce142    10.002   .     S
Ce141     Ce142    9.997   1_655     S
Ce141     Ce144    9.997   .     S
Ce142     Ce141    9.997   1_455     S
Ce143     Ce144    9.997   .     S
Ce143     Ce137    10.002   1_655     S
Ce143     Er162    10.003   .     S
Ce144     Ce138    10.002   1_655     S
Ce145     Ce146    9.997   .     S
Ce145     Ce150    9.997   .     S
Ce145     Ce151    10.002   1_545     S
Ce146     Ce148    9.997   .     S
Ce146     Ce152    10.002   1_545     S
Ce147     Ce148    9.997   1_565     S
Ce147     Ce152    9.997   .     S
Ce147     Ce149    10.002   .     S
Ce148     Ce147    9.997   1_545     S
Ce148     Ce150    10.002   .     S
Ce149     Ce150    9.997   1_565     S
Ce149     Ce151    9.997   .     S
Ce149     Er170    10.003   .     S
Ce150     Ce149    9.997   1_545     S
Ce151     Ce152    9.997   .     S
Ce151     Ce145    10.002   1_565     S
Ce151     Er174    10.003   .     S
Ce152     Ce146    10.002   1_565     S
V153     Er154    9.998   .     S
V153     Er155    9.998   .     S
V153     Ti156    10.0   .     S
Er154     Er155    10.001   .     S
Er154     Ce252    10.003   .     S
Er155     Ce198    10.003   .     S
Ti156     Ti164    10.002   .     S
Ti156     Ti176    10.002   .     S
V157     Er159    9.998   .     S
V157     Er158    9.998   .     S
V157     Ti160    10.0   .     S
Er158     Er159    10.001   .     S
Er159     Ce189    10.003   .     S
Ti160     Ti164    10.002   .     S
Ti160     Ti168    10.002   .     S
V161     Er163    9.998   .     S
V161     Er162    9.998   .     S
V161     Ti164    10.0   .     S
Er162     Er163    10.001   .     S
Er163     Ce249    10.003   .     S
V165     Er166    9.998   .     S
V165     Er167    9.998   .     S
V165     Ti168    10.0   .     S
Er166     Er167    10.001   .     S
Er166     Ce192    10.003   .     S
Er167     Ce208    10.003   .     S
Ti168     Ti172    10.002   .     S
V169     Er171    9.998   .     S
V169     Er170    9.998   .     S
V169     Ti172    10.0   .     S
Er170     Er171    10.001   .     S
Er171     Ce201    10.003   .     S
Ti172     Ti176    10.002   .     S
V173     Er175    9.998   .     S
V173     Er174    9.998   .     S
V173     Ti176    10.0   .     S
Er174     Er175    10.001   .     S
Er175     Ce195    10.003   .     S
Ce177     Ce178    9.997   .     S
Ce177     Ce180    9.997   .     S
Ce177     Ce183    10.002   1_545     S
Ce177     Er275    10.003   .     S
Ce178     Ce182    9.997   .     S
Ce178     Ce184    10.002   1_545     S
Ce179     Ce180    9.997   1_565     S
Ce179     Ce183    9.997   .     S
Ce179     Ce181    10.002   .     S
Ce179     Er219    10.003   .     S
Ce180     Ce179    9.997   1_545     S
Ce180     Ce182    10.002   .     S
Ce180     Er278    10.003   .     S
Ce181     Ce182    9.997   1_565     S
Ce181     Ce184    9.997   .     S
Ce182     Ce181    9.997   1_545     S
Ce183     Ce184    9.997   .     S
Ce183     Ce177    10.002   1_565     S
Ce183     Er215    10.003   .     S
Ce184     Ce178    10.002   1_565     S
Ce185     Ce186    9.997   .     S
Ce185     Ce188    9.997   .     S
Ce185     Ce191    10.002   1_455     S
Ce186     Ce190    9.997   .     S
Ce186     Ce192    10.002   1_455     S
Ce187     Ce188    9.997   1_655     S
Ce187     Ce191    9.997   .     S
Ce187     Ce189    10.002   .     S
Ce187     Er227    10.003   .     S
Ce188     Ce187    9.997   1_455     S
Ce188     Ce190    10.002   .     S
Ce189     Ce190    9.997   1_655     S
Ce189     Ce192    9.997   .     S
Ce190     Ce189    9.997   1_455     S
Ce191     Ce192    9.997   .     S
Ce191     Ce185    10.002   1_655     S
Ce191     Er223    10.003   .     S
Ce192     Ce186    10.002   1_655     S
Ce193     Ce194    9.997   1_556     S
Ce193     Ce200    9.997   .     S
Ce193     Ce197    10.002   .     S
Ce194     Ce193    9.997   1_554     S
Ce194     Ce196    9.997   .     S
Ce194     Ce198    10.002   .     S
Ce195     Ce196    9.997   .     S
Ce195     Ce198    9.997   .     S
Ce195     Ce199    10.002   1_554     S
Ce196     Ce200    10.002   1_554     S
Ce197     Ce198    9.997   1_556     S
Ce197     Ce199    9.997   .     S
Ce197     Er210    10.003   .     S
Ce198     Ce197    9.997   1_554     S
Ce199     Ce200    9.997   .     S
Ce199     Ce195    10.002   1_556     S
Ce199     Er214    10.003   .     S
Ce200     Ce196    10.002   1_556     S
Ce201     Ce202    9.997   1_565     S
Ce201     Ce208    9.997   .     S
Ce201     Ce205    10.002   .     S
Ce202     Ce201    9.997   1_545     S
Ce202     Ce204    9.997   .     S
Ce202     Ce206    10.002   .     S
Ce203     Ce204    9.997   .     S
Ce203     Ce206    9.997   .     S
Ce203     Ce207    10.002   1_545     S
Ce203     Er287    10.003   .     S
Ce204     Ce208    10.002   1_545     S
Ce205     Ce206    9.997   1_565     S
Ce205     Ce207    9.997   .     S
Ce205     Er218    10.003   .     S
Ce206     Ce205    9.997   1_545     S
Ce206     Er279    10.003   .     S
Ce207     Ce208    9.997   .     S
Ce207     Ce203    10.002   1_565     S
Ce207     Er222    10.003   .     S
Ce208     Ce204    10.002   1_565     S
V209     Er210    9.998   .     S
V209     Er211    9.998   .     S
V209     Ti212    10.0   .     S
Er210     Er211    10.001   .     S
Er211     Ce251    10.003   .     S
Ti212     Ti216    10.002   .     S
Ti212     Ti232    10.002   .     S
V213     Er214    9.998   .     S
V213     Er215    9.998   .     S
V213     Ti216    10.0   .     S
Er214     Er215    10.001   .     S
Ti216     Ti220    10.002   .     S
V217     Er218    9.998   .     S
V217     Er219    9.998   .     S
V217     Ti220    10.0   .     S
Er218     Er219    10.001   .     S
Ti220     Ti224    10.002   .     S
V221     Er222    9.998   .     S
V221     Er223    9.998   .     S
V221     Ti224    10.0   .     S
Er222     Er223    10.001   .     S
Ti224     Ti228    10.002   .     S
V225     Er226    9.998   .     S
V225     Er227    9.998   .     S
V225     Ti228    10.0   .     S
Er226     Er227    10.001   .     S
Er226     Ce245    10.003   .     S
Ti228     Ti232    10.002   .     S
V229     Er230    9.998   .     S
V229     Er231    9.998   .     S
V229     Ti232    10.0   .     S
Er230     Er231    10.001   .     S
Er230     Ce247    10.003   .     S
Er231     Ce255    10.003   .     S
Ce233     Ce234    9.997   .     S
Ce233     Ce236    9.997   .     S
Ce233     Ce239    10.002   1_554     S
Ce234     Ce238    9.997   .     S
Ce234     Ce240    10.002   1_554     S
Ce235     Ce236    9.997   1_556     S
Ce235     Ce239    9.997   .     S
Ce235     Ce237    10.002   .     S
Ce235     Er270    10.003   .     S
Ce236     Ce235    9.997   1_554     S
Ce236     Ce238    10.002   .     S
Ce237     Ce238    9.997   1_556     S
Ce237     Ce240    9.997   .     S
Ce238     Ce237    9.997   1_554     S
Ce239     Ce240    9.997   .     S
Ce239     Ce233    10.002   1_556     S
Ce239     Er274    10.003   .     S
Ce240     Ce234    10.002   1_556     S
Ce241     Ce242    9.997   1_655     S
Ce241     Ce248    9.997   .     S
Ce241     Ce245    10.002   .     S
Ce241     Er283    10.003   .     S
Ce242     Ce241    9.997   1_455     S
Ce242     Ce244    9.997   .     S
Ce242     Ce246    10.002   .     S
Ce243     Ce244    9.997   .     S
Ce243     Ce246    9.997   .     S
Ce243     Ce247    10.002   1_455     S
Ce244     Ce248    10.002   1_455     S
Ce245     Ce246    9.997   1_655     S
Ce245     Ce247    9.997   .     S
Ce246     Ce245    9.997   1_455     S
Ce247     Ce248    9.997   .     S
Ce247     Ce243    10.002   1_655     S
Ce248     Ce244    10.002   1_655     S
Ce248     Er267    10.003   .     S
Ce249     Ce250    9.997   .     S
Ce249     Ce252    9.997   .     S
Ce249     Ce255    10.002   1_554     S
Ce250     Ce254    9.997   .     S
Ce250     Ce256    10.002   1_554     S
Ce251     Ce252    9.997   1_556     S
Ce251     Ce255    9.997   .     S
Ce251     Ce253    10.002   .     S
Ce252     Ce251    9.997   1_554     S
Ce252     Ce254    10.002   .     S
Ce253     Ce254    9.997   1_556     S
Ce253     Ce256    9.997   .     S
Ce253     Er271    10.003   .     S
Ce254     Ce253    9.997   1_554     S
Ce255     Ce256    9.997   .     S
Ce255     Ce249    10.002   1_556     S
Ce256     Ce250    10.002   1_556     S
Ce256     Er266    10.003   .     S
Ce257     Ce258    9.997   .     S
Ce257     Ce259    9.997   .     S
Ce257     Ce263    10.002   1_655     S
Ce257     Er286    10.003   .     S
Ce258     Ce261    9.997   .     S
Ce258     Ce264    10.002   1_655     S
Ce259     Ce260    9.997   1_655     S
Ce259     Ce261    10.002   .     S
Ce259     Er282    10.003   .     S
Ce260     Ce259    9.997   1_455     S
Ce260     Ce263    9.997   .     S
Ce260     Ce262    10.002   .     S
Ce261     Ce262    9.997   1_655     S
Ce262     Ce261    9.997   1_455     S
Ce262     Ce264    9.997   .     S
Ce263     Ce264    9.997   .     S
Ce263     Ce257    10.002   1_455     S
Ce264     Ce258    10.002   1_455     S
V265     Er266    9.998   .     S
V265     Er267    9.998   .     S
V265     Ti268    10.0   .     S
Er266     Er267    10.001   .     S
Ti268     Ti272    10.002   .     S
Ti268     Ti284    10.002   .     S
V269     Er271    9.998   .     S
V269     Er270    9.998   .     S
V269     Ti272    10.0   .     S
Er270     Er271    10.001   .     S
Ti272     Ti276    10.002   .     S
V273     Er275    9.998   .     S
V273     Er274    9.998   .     S
V273     Ti276    10.0   .     S
Er274     Er275    10.001   .     S
Ti276     Ti280    10.002   .     S
V277     Er278    9.998   .     S
V277     Er279    9.998   .     S
V277     Ti280    10.0   .     S
Er278     Er279    10.001   .     S
Ti280     Ti288    10.002   .     S
V281     Er283    9.998   .     S
V281     Er282    9.998   .     S
V281     Ti284    10.0   .     S
Er282     Er283    10.001   .     S
Ti284     Ti288    10.002   .     S
V285     Er287    9.998   .     S
V285     Er286    9.998   .     S
V285     Ti288    10.0   .     S
Er286     Er287    10.001   .     S
