data_dnca
_audit_creation_date              2020-02-02
_audit_creation_method            'Pymatgen'
_symmetry_space_group_name_H-M    'P1'
_symmetry_Int_Tables_number       1
loop_
_symmetry_equiv_pos_as_xyz
  x,y,z
_cell_length_a                    68.8828
_cell_length_b                    68.8828
_cell_length_c                    68.8828
_cell_angle_alpha                 90.0
_cell_angle_beta                 90.0
_cell_angle_gamma                 90.0
loop_
_atom_site_label
_atom_site_type_symbol
_atom_site_fract_x
_atom_site_fract_y
_atom_site_fract_z
Ti1     Ti     0.3226   0.4256   0.0744
Ti2     Ti     0.4256   0.3226   0.0744
Ti3     Ti     0.4256   0.4256   0.1774
Ti4     Ti     0.4256   0.6774   0.0744
Ti5     Ti     0.3226   0.5744   0.0744
Ti6     Ti     0.4256   0.5744   0.1774
Ti7     Ti     0.6774   0.4256   0.0744
Ti8     Ti     0.5744   0.3226   0.0744
Ti9     Ti     0.5744   0.4256   0.1774
Ti10     Ti     0.5744   0.6774   0.0744
Ti11     Ti     0.6774   0.5744   0.0744
Ti12     Ti     0.5744   0.5744   0.1774
Ti13     Ti     0.3226   0.4256   0.9256
Ti14     Ti     0.4256   0.3226   0.9256
Ti15     Ti     0.4256   0.4256   0.8226
Ti16     Ti     0.4256   0.6774   0.9256
Ti17     Ti     0.3226   0.5744   0.9256
Ti18     Ti     0.4256   0.5744   0.8226
Ti19     Ti     0.6774   0.4256   0.9256
Ti20     Ti     0.5744   0.3226   0.9256
Ti21     Ti     0.5744   0.4256   0.8226
Ti22     Ti     0.6774   0.5744   0.9256
Ti23     Ti     0.5744   0.6774   0.9256
Ti24     Ti     0.5744   0.5744   0.8226
Ti25     Ti     0.4256   0.9256   0.3226
Ti26     Ti     0.3226   0.9256   0.4256
Ti27     Ti     0.4256   0.8226   0.4256
Ti28     Ti     0.3226   0.0744   0.4256
Ti29     Ti     0.4256   0.0744   0.3226
Ti30     Ti     0.4256   0.1774   0.4256
Ti31     Ti     0.6774   0.9256   0.4256
Ti32     Ti     0.5744   0.9256   0.3226
Ti33     Ti     0.5744   0.8226   0.4256
Ti34     Ti     0.6774   0.0744   0.4256
Ti35     Ti     0.5744   0.0744   0.3226
Ti36     Ti     0.5744   0.1774   0.4256
Ti37     Ti     0.4256   0.9256   0.6774
Ti38     Ti     0.3226   0.9256   0.5744
Ti39     Ti     0.4256   0.8226   0.5744
Ti40     Ti     0.4256   0.0744   0.6774
Ti41     Ti     0.3226   0.0744   0.5744
Ti42     Ti     0.4256   0.1774   0.5744
Ti43     Ti     0.6774   0.0744   0.5744
Ti44     Ti     0.5744   0.0744   0.6774
Ti45     Ti     0.5744   0.1774   0.5744
Ti46     Ti     0.5744   0.9256   0.6774
Ti47     Ti     0.6774   0.9256   0.5744
Ti48     Ti     0.5744   0.8226   0.5744
Ti49     Ti     0.9256   0.4256   0.3226
Ti50     Ti     0.9256   0.3226   0.4256
Ti51     Ti     0.8226   0.4256   0.4256
Ti52     Ti     0.9256   0.6774   0.4256
Ti53     Ti     0.9256   0.5744   0.3226
Ti54     Ti     0.8226   0.5744   0.4256
Ti55     Ti     0.0744   0.3226   0.4256
Ti56     Ti     0.0744   0.4256   0.3226
Ti57     Ti     0.1774   0.4256   0.4256
Ti58     Ti     0.0744   0.6774   0.4256
Ti59     Ti     0.0744   0.5744   0.3226
Ti60     Ti     0.1774   0.5744   0.4256
Ti61     Ti     0.9256   0.4256   0.6774
Ti62     Ti     0.9256   0.3226   0.5744
Ti63     Ti     0.8226   0.4256   0.5744
Ti64     Ti     0.0744   0.4256   0.6774
Ti65     Ti     0.0744   0.3226   0.5744
Ti66     Ti     0.1774   0.4256   0.5744
Ti67     Ti     0.0744   0.6774   0.5744
Ti68     Ti     0.0744   0.5744   0.6774
Ti69     Ti     0.1774   0.5744   0.5744
Ti70     Ti     0.9256   0.5744   0.6774
Ti71     Ti     0.9256   0.6774   0.5744
Ti72     Ti     0.8226   0.5744   0.5744
Ce73     Ce     0.824   0.824   0.7808
Ce74     Ce     0.824   0.7808   0.824
Ce75     Ce     0.7808   0.824   0.824
Ce76     Ce     0.176   0.176   0.2192
Ce77     Ce     0.2192   0.176   0.176
Ce78     Ce     0.176   0.2192   0.176
Ce79     Ce     0.324   0.2808   0.824
Ce80     Ce     0.2808   0.324   0.824
Ce81     Ce     0.324   0.324   0.7808
Ce82     Ce     0.324   0.676   0.7808
Ce83     Ce     0.2808   0.676   0.824
Ce84     Ce     0.324   0.7192   0.824
Ce85     Ce     0.676   0.676   0.7808
Ce86     Ce     0.676   0.7192   0.824
Ce87     Ce     0.7192   0.676   0.824
Ce88     Ce     0.676   0.324   0.7808
Ce89     Ce     0.676   0.2808   0.824
Ce90     Ce     0.7192   0.324   0.824
Ce91     Ce     0.2808   0.824   0.676
Ce92     Ce     0.324   0.7808   0.676
Ce93     Ce     0.324   0.824   0.7192
Ce94     Ce     0.676   0.824   0.2808
Ce95     Ce     0.676   0.7808   0.324
Ce96     Ce     0.7192   0.824   0.324
Ce97     Ce     0.324   0.824   0.2808
Ce98     Ce     0.2808   0.824   0.324
Ce99     Ce     0.324   0.7808   0.324
Ce100     Ce     0.676   0.824   0.7192
Ce101     Ce     0.676   0.7808   0.676
Ce102     Ce     0.7192   0.824   0.676
Ce103     Ce     0.824   0.324   0.2808
Ce104     Ce     0.824   0.2808   0.324
Ce105     Ce     0.7808   0.324   0.324
Ce106     Ce     0.824   0.676   0.2808
Ce107     Ce     0.7808   0.676   0.324
Ce108     Ce     0.824   0.7192   0.324
Ce109     Ce     0.7808   0.324   0.676
Ce110     Ce     0.824   0.2808   0.676
Ce111     Ce     0.824   0.324   0.7192
Er112     Er     0.3533   0.6467   0.6467
V113     V     0.4306   0.5694   0.5694
Er114     Er     0.3533   0.6467   0.3533
V115     V     0.4306   0.5694   0.4306
V116     V     0.4306   0.4306   0.4306
Er117     Er     0.3533   0.3533   0.3533
Er118     Er     0.3533   0.3533   0.6467
V119     V     0.4306   0.4306   0.5694
Er120     Er     0.6467   0.3533   0.6467
V121     V     0.5694   0.4306   0.5694
Er122     Er     0.6467   0.3533   0.3533
V123     V     0.5694   0.4306   0.4306
Er124     Er     0.6467   0.6467   0.3533
V125     V     0.5694   0.5694   0.4306
Er126     Er     0.6467   0.6467   0.6467
V127     V     0.5694   0.5694   0.5694
Ce128     Ce     0.824   0.676   0.7192
Ce129     Ce     0.824   0.7192   0.676
Ce130     Ce     0.7808   0.676   0.676
Ce131     Ce     0.824   0.824   0.2192
Ce132     Ce     0.7808   0.824   0.176
Ce133     Ce     0.824   0.7808   0.176
Ce134     Ce     0.824   0.176   0.7808
Ce135     Ce     0.824   0.2192   0.824
Ce136     Ce     0.7808   0.176   0.824
Ce137     Ce     0.176   0.824   0.7808
Ce138     Ce     0.2192   0.824   0.824
Ce139     Ce     0.176   0.7808   0.824
Ce140     Ce     0.676   0.324   0.2192
Ce141     Ce     0.676   0.2808   0.176
Ce142     Ce     0.7192   0.324   0.176
Ce143     Ce     0.2808   0.324   0.176
Ce144     Ce     0.324   0.2808   0.176
Ce145     Ce     0.324   0.324   0.2192
Ce146     Ce     0.324   0.676   0.2192
Ce147     Ce     0.2808   0.676   0.176
Ce148     Ce     0.324   0.7192   0.176
Ce149     Ce     0.676   0.676   0.2192
Ce150     Ce     0.7192   0.676   0.176
Ce151     Ce     0.676   0.7192   0.176
Ce152     Ce     0.324   0.176   0.2808
Ce153     Ce     0.2808   0.176   0.324
Ce154     Ce     0.324   0.2192   0.324
Ce155     Ce     0.676   0.176   0.2808
Ce156     Ce     0.676   0.2192   0.324
Ce157     Ce     0.7192   0.176   0.324
Ce158     Ce     0.324   0.2192   0.676
Ce159     Ce     0.2808   0.176   0.676
Ce160     Ce     0.324   0.176   0.7192
Ce161     Ce     0.824   0.176   0.2192
Ce162     Ce     0.824   0.2192   0.176
Ce163     Ce     0.7808   0.176   0.176
Er164     Er     0.3533   0.8533   0.1467
V165     V     0.4306   0.9306   0.0694
Er166     Er     0.3533   0.8533   0.8533
V167     V     0.4306   0.9306   0.9306
V168     V     0.4306   0.0694   0.0694
Er169     Er     0.3533   0.1467   0.1467
Er170     Er     0.3533   0.1467   0.8533
V171     V     0.4306   0.0694   0.9306
Er172     Er     0.6467   0.8533   0.1467
V173     V     0.5694   0.9306   0.0694
Er174     Er     0.6467   0.8533   0.8533
V175     V     0.5694   0.9306   0.9306
Er176     Er     0.6467   0.1467   0.1467
V177     V     0.5694   0.0694   0.0694
Er178     Er     0.6467   0.1467   0.8533
V179     V     0.5694   0.0694   0.9306
Ce180     Ce     0.7192   0.176   0.676
Ce181     Ce     0.676   0.2192   0.676
Ce182     Ce     0.676   0.176   0.7192
Ce183     Ce     0.176   0.676   0.2808
Ce184     Ce     0.2192   0.676   0.324
Ce185     Ce     0.176   0.7192   0.324
Ce186     Ce     0.176   0.324   0.2808
Ce187     Ce     0.176   0.2808   0.324
Ce188     Ce     0.2192   0.324   0.324
Ce189     Ce     0.176   0.676   0.7192
Ce190     Ce     0.2192   0.676   0.676
Ce191     Ce     0.176   0.7192   0.676
Ce192     Ce     0.176   0.824   0.2192
Ce193     Ce     0.2192   0.824   0.176
Ce194     Ce     0.176   0.7808   0.176
Er195     Er     0.8533   0.6467   0.1467
V196     V     0.9306   0.5694   0.0694
Er197     Er     0.8533   0.6467   0.8533
V198     V     0.9306   0.5694   0.9306
Er199     Er     0.1467   0.6467   0.1467
V200     V     0.0694   0.5694   0.0694
Er201     Er     0.1467   0.6467   0.8533
V202     V     0.0694   0.5694   0.9306
Er203     Er     0.8533   0.3533   0.8533
V204     V     0.9306   0.4306   0.9306
Er205     Er     0.8533   0.3533   0.1467
V206     V     0.9306   0.4306   0.0694
V207     V     0.0694   0.4306   0.0694
Er208     Er     0.1467   0.3533   0.1467
Er209     Er     0.1467   0.3533   0.8533
V210     V     0.0694   0.4306   0.9306
Ce211     Ce     0.176   0.2808   0.676
Ce212     Ce     0.2192   0.324   0.676
Ce213     Ce     0.176   0.324   0.7192
Er214     Er     0.1467   0.8533   0.6467
V215     V     0.0694   0.9306   0.5694
Er216     Er     0.1467   0.1467   0.6467
V217     V     0.0694   0.0694   0.5694
Er218     Er     0.8533   0.1467   0.6467
V219     V     0.9306   0.0694   0.5694
Er220     Er     0.8533   0.8533   0.6467
V221     V     0.9306   0.9306   0.5694
Er222     Er     0.8533   0.8533   0.3533
V223     V     0.9306   0.9306   0.4306
Er224     Er     0.8533   0.1467   0.3533
V225     V     0.9306   0.0694   0.4306
Er226     Er     0.1467   0.8533   0.3533
V227     V     0.0694   0.9306   0.4306
V228     V     0.0694   0.0694   0.4306
Er229     Er     0.1467   0.1467   0.3533
Ce230     Ce     0.176   0.2192   0.824
Ce231     Ce     0.2192   0.176   0.824
Ce232     Ce     0.176   0.176   0.7808
Ti233     Ti     0.9256   0.9256   0.1774
Ti234     Ti     0.9256   0.8226   0.0744
Ti235     Ti     0.8226   0.9256   0.0744
Ti236     Ti     0.9256   0.0744   0.1774
Ti237     Ti     0.9256   0.1774   0.0744
Ti238     Ti     0.8226   0.0744   0.0744
Ti239     Ti     0.0744   0.9256   0.1774
Ti240     Ti     0.1774   0.9256   0.0744
Ti241     Ti     0.0744   0.8226   0.0744
Ti242     Ti     0.1774   0.0744   0.0744
Ti243     Ti     0.0744   0.0744   0.1774
Ti244     Ti     0.0744   0.1774   0.0744
Ti245     Ti     0.0744   0.9256   0.8226
Ti246     Ti     0.1774   0.9256   0.9256
Ti247     Ti     0.0744   0.8226   0.9256
Ti248     Ti     0.1774   0.0744   0.9256
Ti249     Ti     0.0744   0.1774   0.9256
Ti250     Ti     0.0744   0.0744   0.8226
Ti251     Ti     0.9256   0.0744   0.8226
Ti252     Ti     0.9256   0.1774   0.9256
Ti253     Ti     0.8226   0.0744   0.9256
Ti254     Ti     0.9256   0.9256   0.8226
Ti255     Ti     0.8226   0.9256   0.9256
Ti256     Ti     0.9256   0.8226   0.9256
loop_
_geom_bond_atom_site_label_1
_geom_bond_atom_site_label_2
_geom_bond_distance
_geom_bond_site_symmetry_2
_ccdc_geom_bond_type
Ti1     Ti3    10.037   .     S
Ti1     Ti2    10.037   .     S
Ti1     Ce143    10.306   .     S
Ti1     Ti13    10.247   1_554     S
Ti1     Ti5    10.247   .     S
Ti2     Ti3    10.037   .     S
Ti2     Ce144    10.306   .     S
Ti2     Ti14    10.247   1_554     S
Ti2     Ti8    10.247   .     S
Ti3     Ce145    10.306   .     S
Ti3     Ti6    10.247   .     S
Ti3     Ti9    10.247   .     S
Ti4     Ti6    10.037   .     S
Ti4     Ti5    10.037   .     S
Ti4     Ce148    10.306   .     S
Ti4     Ti16    10.247   1_554     S
Ti4     Ti10    10.247   .     S
Ti5     Ti6    10.037   .     S
Ti5     Ce147    10.306   .     S
Ti5     Ti17    10.247   1_554     S
Ti6     Ce146    10.306   .     S
Ti6     Ti12    10.247   .     S
Ti7     Ti9    10.037   .     S
Ti7     Ti8    10.037   .     S
Ti7     Ce142    10.306   .     S
Ti7     Ti19    10.247   1_554     S
Ti7     Ti11    10.247   .     S
Ti8     Ti9    10.037   .     S
Ti8     Ce141    10.306   .     S
Ti8     Ti20    10.247   1_554     S
Ti9     Ce140    10.306   .     S
Ti9     Ti12    10.247   .     S
Ti10     Ti12    10.037   .     S
Ti10     Ti11    10.037   .     S
Ti10     Ce151    10.306   .     S
Ti10     Ti23    10.247   1_554     S
Ti11     Ti12    10.037   .     S
Ti11     Ce150    10.306   .     S
Ti11     Ti22    10.247   1_554     S
Ti12     Ce149    10.306   .     S
Ti13     Ti15    10.037   .     S
Ti13     Ti14    10.037   .     S
Ti13     Ce80    10.306   .     S
Ti13     Ti1    10.247   1_556     S
Ti13     Ti17    10.247   .     S
Ti14     Ti15    10.037   .     S
Ti14     Ce79    10.306   .     S
Ti14     Ti2    10.247   1_556     S
Ti14     Ti20    10.247   .     S
Ti15     Ce81    10.306   .     S
Ti15     Ti18    10.247   .     S
Ti15     Ti21    10.247   .     S
Ti16     Ti18    10.037   .     S
Ti16     Ti17    10.037   .     S
Ti16     Ce84    10.306   .     S
Ti16     Ti4    10.247   1_556     S
Ti16     Ti23    10.247   .     S
Ti17     Ti18    10.037   .     S
Ti17     Ce83    10.306   .     S
Ti17     Ti5    10.247   1_556     S
Ti18     Ce82    10.306   .     S
Ti18     Ti24    10.247   .     S
Ti19     Ti20    10.037   .     S
Ti19     Ti21    10.037   .     S
Ti19     Ce90    10.306   .     S
Ti19     Ti7    10.247   1_556     S
Ti19     Ti22    10.247   .     S
Ti20     Ti21    10.037   .     S
Ti20     Ce89    10.306   .     S
Ti20     Ti8    10.247   1_556     S
Ti21     Ce88    10.306   .     S
Ti21     Ti24    10.247   .     S
Ti22     Ti24    10.037   .     S
Ti22     Ti23    10.037   .     S
Ti22     Ce87    10.306   .     S
Ti22     Ti11    10.247   1_556     S
Ti23     Ti24    10.037   .     S
Ti23     Ce86    10.306   .     S
Ti23     Ti10    10.247   1_556     S
Ti24     Ce85    10.306   .     S
Ti25     Ti26    10.037   .     S
Ti25     Ti27    10.037   .     S
Ti25     Ce97    10.306   .     S
Ti25     Ti29    10.247   1_565     S
Ti25     Ti32    10.247   .     S
Ti26     Ti27    10.037   .     S
Ti26     Ce98    10.306   .     S
Ti26     Ti38    10.247   .     S
Ti26     Ti28    10.247   1_565     S
Ti27     Ce99    10.306   .     S
Ti27     Ti39    10.247   .     S
Ti27     Ti33    10.247   .     S
Ti28     Ti30    10.037   .     S
Ti28     Ti29    10.037   .     S
Ti28     Ce153    10.306   .     S
Ti28     Ti41    10.247   .     S
Ti28     Ti26    10.247   1_545     S
Ti29     Ti30    10.037   .     S
Ti29     Ce152    10.306   .     S
Ti29     Ti35    10.247   .     S
Ti29     Ti25    10.247   1_545     S
Ti30     Ce154    10.306   .     S
Ti30     Ti42    10.247   .     S
Ti30     Ti36    10.247   .     S
Ti31     Ti32    10.037   .     S
Ti31     Ti33    10.037   .     S
Ti31     Ce96    10.306   .     S
Ti31     Ti47    10.247   .     S
Ti31     Ti34    10.247   1_565     S
Ti32     Ti33    10.037   .     S
Ti32     Ce94    10.306   .     S
Ti32     Ti35    10.247   1_565     S
Ti33     Ce95    10.306   .     S
Ti33     Ti48    10.247   .     S
Ti34     Ti36    10.037   .     S
Ti34     Ti35    10.037   .     S
Ti34     Ce157    10.306   .     S
Ti34     Ti43    10.247   .     S
Ti34     Ti31    10.247   1_545     S
Ti35     Ti36    10.037   .     S
Ti35     Ce155    10.306   .     S
Ti35     Ti32    10.247   1_545     S
Ti36     Ce156    10.306   .     S
Ti36     Ti45    10.247   .     S
Ti37     Ti39    10.037   .     S
Ti37     Ti38    10.037   .     S
Ti37     Ce93    10.306   .     S
Ti37     Ti40    10.247   1_565     S
Ti37     Ti46    10.247   .     S
Ti38     Ti39    10.037   .     S
Ti38     Ce91    10.306   .     S
Ti38     Ti41    10.247   1_565     S
Ti39     Ce92    10.306   .     S
Ti39     Ti48    10.247   .     S
Ti40     Ti42    10.037   .     S
Ti40     Ti41    10.037   .     S
Ti40     Ce160    10.306   .     S
Ti40     Ti44    10.247   .     S
Ti40     Ti37    10.247   1_545     S
Ti41     Ti42    10.037   .     S
Ti41     Ce159    10.306   .     S
Ti41     Ti38    10.247   1_545     S
Ti42     Ce158    10.306   .     S
Ti42     Ti45    10.247   .     S
Ti43     Ti45    10.037   .     S
Ti43     Ti44    10.037   .     S
Ti43     Ce180    10.306   .     S
Ti43     Ti47    10.247   1_545     S
Ti44     Ti45    10.037   .     S
Ti44     Ce182    10.306   .     S
Ti44     Ti46    10.247   1_545     S
Ti45     Ce181    10.306   .     S
Ti46     Ti47    10.037   .     S
Ti46     Ti48    10.037   .     S
Ti46     Ce100    10.306   .     S
Ti46     Ti44    10.247   1_565     S
Ti47     Ti48    10.037   .     S
Ti47     Ce102    10.306   .     S
Ti47     Ti43    10.247   1_565     S
Ti48     Ce101    10.306   .     S
Ti49     Ti51    10.037   .     S
Ti49     Ti50    10.037   .     S
Ti49     Ce103    10.306   .     S
Ti49     Ti53    10.247   .     S
Ti49     Ti56    10.247   1_655     S
Ti50     Ti51    10.037   .     S
Ti50     Ce104    10.306   .     S
Ti50     Ti62    10.247   .     S
Ti50     Ti55    10.247   1_655     S
Ti51     Ce105    10.306   .     S
Ti51     Ti63    10.247   .     S
Ti51     Ti54    10.247   .     S
Ti52     Ti53    10.037   .     S
Ti52     Ti54    10.037   .     S
Ti52     Ce108    10.306   .     S
Ti52     Ti71    10.247   .     S
Ti52     Ti58    10.247   1_655     S
Ti53     Ti54    10.037   .     S
Ti53     Ce106    10.306   .     S
Ti53     Ti59    10.247   1_655     S
Ti54     Ce107    10.306   .     S
Ti54     Ti72    10.247   .     S
Ti55     Ti57    10.037   .     S
Ti55     Ti56    10.037   .     S
Ti55     Ce187    10.306   .     S
Ti55     Ti65    10.247   .     S
Ti55     Ti50    10.247   1_455     S
Ti56     Ti57    10.037   .     S
Ti56     Ce186    10.306   .     S
Ti56     Ti59    10.247   .     S
Ti56     Ti49    10.247   1_455     S
Ti57     Ce188    10.306   .     S
Ti57     Ti66    10.247   .     S
Ti57     Ti60    10.247   .     S
Ti58     Ti60    10.037   .     S
Ti58     Ti59    10.037   .     S
Ti58     Ce185    10.306   .     S
Ti58     Ti67    10.247   .     S
Ti58     Ti52    10.247   1_455     S
Ti59     Ti60    10.037   .     S
Ti59     Ce183    10.306   .     S
Ti59     Ti53    10.247   1_455     S
Ti60     Ce184    10.306   .     S
Ti60     Ti69    10.247   .     S
Ti61     Ti62    10.037   .     S
Ti61     Ti63    10.037   .     S
Ti61     Ce111    10.306   .     S
Ti61     Ti70    10.247   .     S
Ti61     Ti64    10.247   1_655     S
Ti62     Ti63    10.037   .     S
Ti62     Ce110    10.306   .     S
Ti62     Ti65    10.247   1_655     S
Ti63     Ce109    10.306   .     S
Ti63     Ti72    10.247   .     S
Ti64     Ti66    10.037   .     S
Ti64     Ti65    10.037   .     S
Ti64     Ce213    10.306   .     S
Ti64     Ti68    10.247   .     S
Ti64     Ti61    10.247   1_455     S
Ti65     Ti66    10.037   .     S
Ti65     Ce211    10.306   .     S
Ti65     Ti62    10.247   1_455     S
Ti66     Ce212    10.306   .     S
Ti66     Ti69    10.247   .     S
Ti67     Ti69    10.037   .     S
Ti67     Ti68    10.037   .     S
Ti67     Ce191    10.306   .     S
Ti67     Ti71    10.247   1_455     S
Ti68     Ti69    10.037   .     S
Ti68     Ce189    10.306   .     S
Ti68     Ti70    10.247   1_455     S
Ti69     Ce190    10.306   .     S
Ti70     Ti72    10.037   .     S
Ti70     Ti71    10.037   .     S
Ti70     Ce128    10.306   .     S
Ti70     Ti68    10.247   1_655     S
Ti71     Ti72    10.037   .     S
Ti71     Ce129    10.306   .     S
Ti71     Ti67    10.247   1_655     S
Ti72     Ce130    10.306   .     S
Ce73     Ce129    10.217   .     S
Ce73     Ce102    10.217   .     S
Ce73     Er220    9.674   .     S
Ce73     Ti254    10.306   .     S
Ce74     Ce87    10.217   .     S
Ce74     Ce128    10.217   .     S
Ce74     Er197    9.674   .     S
Ce74     Ti256    10.306   .     S
Ce75     Ce86    10.217   .     S
Ce75     Ce100    10.217   .     S
Ce75     Er174    9.674   .     S
Ce75     Ti255    10.306   .     S
Ce76     Ce153    10.217   .     S
Ce76     Ce187    10.217   .     S
Ce76     Er229    9.674   .     S
Ce76     Ti243    10.306   .     S
Ce77     Ce144    10.217   .     S
Ce77     Ce152    10.217   .     S
Ce77     Er169    9.674   .     S
Ce77     Ti242    10.306   .     S
Ce78     Ce143    10.217   .     S
Ce78     Ce186    10.217   .     S
Ce78     Er208    9.674   .     S
Ce78     Ti244    10.306   .     S
Ce79     Ce231    10.217   .     S
Ce79     Ce160    10.217   .     S
Ce79     Er170    9.674   .     S
Ce80     Ce230    10.217   .     S
Ce80     Ce213    10.217   .     S
Ce80     Er209    9.674   .     S
Ce81     Ce158    10.217   .     S
Ce81     Ce212    10.217   .     S
Ce81     Er118    9.674   .     S
Ce82     Ce92    10.217   .     S
Ce82     Ce190    10.217   .     S
Ce82     Er112    9.674   .     S
Ce83     Ce189    10.217   .     S
Ce83     Ce139    10.217   .     S
Ce83     Er201    9.674   .     S
Ce84     Ce93    10.217   .     S
Ce84     Ce138    10.217   .     S
Ce84     Er166    9.674   .     S
Ce85     Ce101    10.217   .     S
Ce85     Ce130    10.217   .     S
Ce85     Er126    9.674   .     S
Ce86     Ce100    10.217   .     S
Ce86     Er174    9.674   .     S
Ce87     Ce128    10.217   .     S
Ce87     Er197    9.674   .     S
Ce88     Ce109    10.217   .     S
Ce88     Ce181    10.217   .     S
Ce88     Er120    9.674   .     S
Ce89     Ce182    10.217   .     S
Ce89     Ce136    10.217   .     S
Ce89     Er178    9.674   .     S
Ce90     Ce111    10.217   .     S
Ce90     Ce135    10.217   .     S
Ce90     Er203    9.674   .     S
Ce91     Ce191    10.217   .     S
Ce91     Ce137    10.217   .     S
Ce91     Er214    9.674   .     S
Ce92     Ce190    10.217   .     S
Ce92     Er112    9.674   .     S
Ce93     Ce138    10.217   .     S
Ce93     Er166    9.674   .     S
Ce94     Ce151    10.217   .     S
Ce94     Ce132    10.217   .     S
Ce94     Er172    9.674   .     S
Ce95     Ce107    10.217   .     S
Ce95     Ce149    10.217   .     S
Ce95     Er124    9.674   .     S
Ce96     Ce108    10.217   .     S
Ce96     Ce131    10.217   .     S
Ce96     Er222    9.674   .     S
Ce97     Ce193    10.217   .     S
Ce97     Ce148    10.217   .     S
Ce97     Er164    9.674   .     S
Ce98     Ce192    10.217   .     S
Ce98     Ce185    10.217   .     S
Ce98     Er226    9.674   .     S
Ce99     Ce146    10.217   .     S
Ce99     Ce184    10.217   .     S
Ce99     Er114    9.674   .     S
Ce100     Er174    9.674   .     S
Ce101     Ce130    10.217   .     S
Ce101     Er126    9.674   .     S
Ce102     Ce129    10.217   .     S
Ce102     Er220    9.674   .     S
Ce103     Ce162    10.217   .     S
Ce103     Ce142    10.217   .     S
Ce103     Er205    9.674   .     S
Ce104     Ce161    10.217   .     S
Ce104     Ce157    10.217   .     S
Ce104     Er224    9.674   .     S
Ce105     Ce156    10.217   .     S
Ce105     Ce140    10.217   .     S
Ce105     Er122    9.674   .     S
Ce106     Ce150    10.217   .     S
Ce106     Ce133    10.217   .     S
Ce106     Er195    9.674   .     S
Ce107     Ce149    10.217   .     S
Ce107     Er124    9.674   .     S
Ce108     Ce131    10.217   .     S
Ce108     Er222    9.674   .     S
Ce109     Ce181    10.217   .     S
Ce109     Er120    9.674   .     S
Ce110     Ce180    10.217   .     S
Ce110     Ce134    10.217   .     S
Ce110     Er218    9.674   .     S
Ce111     Ce135    10.217   .     S
Ce111     Er203    9.674   .     S
Er112     Ce190    9.674   .     S
Er112     V113    9.22   .     S
V113     V115    9.558   .     S
V113     V119    9.558   .     S
V113     V127    9.558   .     S
Er114     Ce146    9.674   .     S
Er114     Ce184    9.674   .     S
Er114     V115    9.22   .     S
V115     V116    9.558   .     S
V115     V125    9.558   .     S
V116     V119    9.558   .     S
V116     V123    9.558   .     S
V116     Er117    9.22   .     S
Er117     Ce145    9.674   .     S
Er117     Ce154    9.674   .     S
Er117     Ce188    9.674   .     S
Er118     Ce158    9.674   .     S
Er118     Ce212    9.674   .     S
Er118     V119    9.22   .     S
V119     V121    9.558   .     S
Er120     Ce181    9.674   .     S
Er120     V121    9.22   .     S
V121     V123    9.558   .     S
V121     V127    9.558   .     S
Er122     Ce140    9.674   .     S
Er122     Ce156    9.674   .     S
Er122     V123    9.22   .     S
V123     V125    9.558   .     S
Er124     Ce149    9.674   .     S
Er124     V125    9.22   .     S
V125     V127    9.558   .     S
Er126     Ce130    9.674   .     S
Er126     V127    9.22   .     S
Ce128     Er197    9.674   .     S
Ce129     Er220    9.674   .     S
Ce131     Er222    9.674   .     S
Ce131     Ti233    10.306   .     S
Ce132     Ce151    10.217   .     S
Ce132     Er172    9.674   .     S
Ce132     Ti235    10.306   .     S
Ce133     Ce150    10.217   .     S
Ce133     Er195    9.674   .     S
Ce133     Ti234    10.306   .     S
Ce134     Ce180    10.217   .     S
Ce134     Er218    9.674   .     S
Ce134     Ti251    10.306   .     S
Ce135     Er203    9.674   .     S
Ce135     Ti252    10.306   .     S
Ce136     Ce182    10.217   .     S
Ce136     Er178    9.674   .     S
Ce136     Ti253    10.306   .     S
Ce137     Ce191    10.217   .     S
Ce137     Er214    9.674   .     S
Ce137     Ti245    10.306   .     S
Ce138     Er166    9.674   .     S
Ce138     Ti246    10.306   .     S
Ce139     Ce189    10.217   .     S
Ce139     Er201    9.674   .     S
Ce139     Ti247    10.306   .     S
Ce140     Ce156    10.217   .     S
Ce141     Ce155    10.217   .     S
Ce141     Ce163    10.217   .     S
Ce141     Er176    9.674   .     S
Ce142     Ce162    10.217   .     S
Ce142     Er205    9.674   .     S
Ce143     Ce186    10.217   .     S
Ce143     Er208    9.674   .     S
Ce144     Ce152    10.217   .     S
Ce144     Er169    9.674   .     S
Ce145     Ce154    10.217   .     S
Ce145     Ce188    10.217   .     S
Ce146     Ce184    10.217   .     S
Ce147     Ce183    10.217   .     S
Ce147     Ce194    10.217   .     S
Ce147     Er199    9.674   .     S
Ce148     Ce193    10.217   .     S
Ce148     Er164    9.674   .     S
Ce150     Er195    9.674   .     S
Ce151     Er172    9.674   .     S
Ce152     Er169    9.674   .     S
Ce153     Ce187    10.217   .     S
Ce153     Er229    9.674   .     S
Ce154     Ce188    10.217   .     S
Ce155     Ce163    10.217   .     S
Ce155     Er176    9.674   .     S
Ce157     Ce161    10.217   .     S
Ce157     Er224    9.674   .     S
Ce158     Ce212    10.217   .     S
Ce159     Ce211    10.217   .     S
Ce159     Ce232    10.217   .     S
Ce159     Er216    9.674   .     S
Ce160     Ce231    10.217   .     S
Ce160     Er170    9.674   .     S
Ce161     Er224    9.674   .     S
Ce161     Ti236    10.306   .     S
Ce162     Er205    9.674   .     S
Ce162     Ti237    10.306   .     S
Ce163     Er176    9.674   .     S
Ce163     Ti238    10.306   .     S
Er164     Ce193    9.674   .     S
Er164     V165    9.22   .     S
V165     V167    9.558   1_554     S
V165     V168    9.558   1_565     S
V165     V173    9.558   .     S
Er166     V167    9.22   .     S
V167     V171    9.558   1_565     S
V167     V165    9.558   1_556     S
V167     V175    9.558   .     S
V168     V171    9.558   1_554     S
V168     V165    9.558   1_545     S
V168     V177    9.558   .     S
V168     Er169    9.22   .     S
Er170     Ce231    9.674   .     S
Er170     V171    9.22   .     S
V171     V179    9.558   .     S
V171     V168    9.558   1_556     S
V171     V167    9.558   1_545     S
Er172     V173    9.22   .     S
V173     V175    9.558   1_554     S
V173     V177    9.558   1_565     S
Er174     V175    9.22   .     S
V175     V179    9.558   1_565     S
V175     V173    9.558   1_556     S
Er176     V177    9.22   .     S
V177     V179    9.558   1_554     S
V177     V173    9.558   1_545     S
Er178     Ce182    9.674   .     S
Er178     V179    9.22   .     S
V179     V177    9.558   1_556     S
V179     V175    9.558   1_545     S
Ce180     Er218    9.674   .     S
Ce183     Ce194    10.217   .     S
Ce183     Er199    9.674   .     S
Ce185     Ce192    10.217   .     S
Ce185     Er226    9.674   .     S
Ce186     Er208    9.674   .     S
Ce187     Er229    9.674   .     S
Ce189     Er201    9.674   .     S
Ce191     Er214    9.674   .     S
Ce192     Er226    9.674   .     S
Ce192     Ti239    10.306   .     S
Ce193     Ti240    10.306   .     S
Ce194     Er199    9.674   .     S
Ce194     Ti241    10.306   .     S
Er195     V196    9.22   .     S
V196     V198    9.558   1_554     S
V196     V200    9.558   1_655     S
V196     V206    9.558   .     S
Er197     V198    9.22   .     S
V198     V202    9.558   1_655     S
V198     V196    9.558   1_556     S
V198     V204    9.558   .     S
Er199     V200    9.22   .     S
V200     V202    9.558   1_554     S
V200     V196    9.558   1_455     S
V200     V207    9.558   .     S
Er201     V202    9.22   .     S
V202     V210    9.558   .     S
V202     V200    9.558   1_556     S
V202     V198    9.558   1_455     S
Er203     V204    9.22   .     S
V204     V206    9.558   1_556     S
V204     V210    9.558   1_655     S
Er205     V206    9.22   .     S
V206     V207    9.558   1_655     S
V206     V204    9.558   1_554     S
V207     V210    9.558   1_554     S
V207     V206    9.558   1_455     S
V207     Er208    9.22   .     S
Er209     Ce213    9.674   .     S
Er209     Ce230    9.674   .     S
Er209     V210    9.22   .     S
V210     V207    9.558   1_556     S
V210     V204    9.558   1_455     S
Ce211     Ce232    10.217   .     S
Ce211     Er216    9.674   .     S
Ce213     Ce230    10.217   .     S
Er214     V215    9.22   .     S
V215     V217    9.558   1_565     S
V215     V221    9.558   1_455     S
V215     V227    9.558   .     S
Er216     Ce232    9.674   .     S
Er216     V217    9.22   .     S
V217     V219    9.558   1_455     S
V217     V215    9.558   1_545     S
V217     V228    9.558   .     S
Er218     V219    9.22   .     S
V219     V221    9.558   1_545     S
V219     V217    9.558   1_655     S
V219     V225    9.558   .     S
Er220     V221    9.22   .     S
V221     V223    9.558   .     S
V221     V219    9.558   1_565     S
V221     V215    9.558   1_655     S
Er222     V223    9.22   .     S
V223     V225    9.558   1_565     S
V223     V227    9.558   1_655     S
Er224     V225    9.22   .     S
V225     V228    9.558   1_655     S
V225     V223    9.558   1_545     S
Er226     V227    9.22   .     S
V227     V228    9.558   1_565     S
V227     V223    9.558   1_455     S
V228     V227    9.558   1_545     S
V228     V225    9.558   1_455     S
V228     Er229    9.22   .     S
Ce230     Ti249    10.306   .     S
Ce231     Ti248    10.306   .     S
Ce232     Ti250    10.306   .     S
Ti233     Ti234    10.037   .     S
Ti233     Ti235    10.037   .     S
Ti233     Ti236    10.247   1_565     S
Ti233     Ti239    10.247   1_655     S
Ti234     Ti235    10.037   .     S
Ti234     Ti256    10.247   1_554     S
Ti234     Ti241    10.247   1_655     S
Ti235     Ti255    10.247   1_554     S
Ti235     Ti238    10.247   1_565     S
Ti236     Ti237    10.037   .     S
Ti236     Ti238    10.037   .     S
Ti236     Ti243    10.247   1_655     S
Ti236     Ti233    10.247   1_545     S
Ti237     Ti238    10.037   .     S
Ti237     Ti252    10.247   1_554     S
Ti237     Ti244    10.247   1_655     S
Ti238     Ti253    10.247   1_554     S
Ti238     Ti235    10.247   1_545     S
Ti239     Ti240    10.037   .     S
Ti239     Ti241    10.037   .     S
Ti239     Ti243    10.247   1_565     S
Ti239     Ti233    10.247   1_455     S
Ti240     Ti241    10.037   .     S
Ti240     Ti246    10.247   1_554     S
Ti240     Ti242    10.247   1_565     S
Ti241     Ti247    10.247   1_554     S
Ti241     Ti234    10.247   1_455     S
Ti242     Ti243    10.037   .     S
Ti242     Ti244    10.037   .     S
Ti242     Ti248    10.247   1_554     S
Ti242     Ti240    10.247   1_545     S
Ti243     Ti244    10.037   .     S
Ti243     Ti239    10.247   1_545     S
Ti243     Ti236    10.247   1_455     S
Ti244     Ti249    10.247   1_554     S
Ti244     Ti237    10.247   1_455     S
Ti245     Ti246    10.037   .     S
Ti245     Ti247    10.037   .     S
Ti245     Ti250    10.247   1_565     S
Ti245     Ti254    10.247   1_455     S
Ti246     Ti247    10.037   .     S
Ti246     Ti240    10.247   1_556     S
Ti246     Ti248    10.247   1_565     S
Ti247     Ti241    10.247   1_556     S
Ti247     Ti256    10.247   1_455     S
Ti248     Ti249    10.037   .     S
Ti248     Ti250    10.037   .     S
Ti248     Ti242    10.247   1_556     S
Ti248     Ti246    10.247   1_545     S
Ti249     Ti250    10.037   .     S
Ti249     Ti244    10.247   1_556     S
Ti249     Ti252    10.247   1_455     S
Ti250     Ti251    10.247   1_455     S
Ti250     Ti245    10.247   1_545     S
Ti251     Ti252    10.037   .     S
Ti251     Ti253    10.037   .     S
Ti251     Ti254    10.247   1_545     S
Ti251     Ti250    10.247   1_655     S
Ti252     Ti253    10.037   .     S
Ti252     Ti237    10.247   1_556     S
Ti252     Ti249    10.247   1_655     S
Ti253     Ti238    10.247   1_556     S
Ti253     Ti255    10.247   1_545     S
Ti254     Ti255    10.037   .     S
Ti254     Ti256    10.037   .     S
Ti254     Ti251    10.247   1_565     S
Ti254     Ti245    10.247   1_655     S
Ti255     Ti256    10.037   .     S
Ti255     Ti235    10.247   1_556     S
Ti255     Ti253    10.247   1_565     S
Ti256     Ti234    10.247   1_556     S
Ti256     Ti247    10.247   1_655     S
