data_dnda
_audit_creation_date              2020-02-02
_audit_creation_method            'Pymatgen'
_symmetry_space_group_name_H-M    'P1'
_symmetry_Int_Tables_number       1
loop_
_symmetry_equiv_pos_as_xyz
  x,y,z
_cell_length_a                    83.0528
_cell_length_b                    83.0528
_cell_length_c                    83.0528
_cell_angle_alpha                 90.0
_cell_angle_beta                 90.0
_cell_angle_gamma                 90.0
loop_
_atom_site_label
_atom_site_type_symbol
_atom_site_fract_x
_atom_site_fract_y
_atom_site_fract_z
Ti1     Ti     0.5   0.5857   0.6711
Ti2     Ti     0.5   0.6711   0.5857
Ti3     Ti     0.5857   0.6711   0.5
Ti4     Ti     0.6711   0.5857   0.5
Ti5     Ti     0.5857   0.5   0.6711
Ti6     Ti     0.6711   0.5   0.5857
Ti7     Ti     0.4143   0.5   0.6711
Ti8     Ti     0.3289   0.5   0.5857
Ti9     Ti     0.4143   0.6711   0.5
Ti10     Ti     0.3289   0.5857   0.5
Ti11     Ti     0.5   0.5857   0.3289
Ti12     Ti     0.5   0.6711   0.4143
Ti13     Ti     0.5   0.4143   0.6711
Ti14     Ti     0.5   0.3289   0.5857
Ti15     Ti     0.5857   0.5   0.3289
Ti16     Ti     0.6711   0.5   0.4143
Ti17     Ti     0.5857   0.3289   0.5
Ti18     Ti     0.6711   0.4143   0.5
Ti19     Ti     0.5   0.3289   0.4143
Ti20     Ti     0.5   0.4143   0.3289
Ti21     Ti     0.3289   0.5   0.4143
Ti22     Ti     0.4143   0.5   0.3289
Ti23     Ti     0.3289   0.4143   0.5
Ti24     Ti     0.4143   0.3289   0.5
Ti25     Ti     0.0   0.6711   0.9143
Ti26     Ti     0.0   0.5857   0.8289
Ti27     Ti     0.1711   0.5857   0.0
Ti28     Ti     0.0857   0.6711   0.0
Ti29     Ti     0.0   0.5857   0.1711
Ti30     Ti     0.0   0.6711   0.0857
Ti31     Ti     0.9143   0.6711   0.0
Ti32     Ti     0.8289   0.5857   0.0
Ti33     Ti     0.9143   0.5   0.8289
Ti34     Ti     0.8289   0.5   0.9143
Ti35     Ti     0.9143   0.5   0.1711
Ti36     Ti     0.8289   0.5   0.0857
Ti37     Ti     0.0857   0.5   0.1711
Ti38     Ti     0.1711   0.5   0.0857
Ti39     Ti     0.9143   0.3289   0.0
Ti40     Ti     0.8289   0.4143   0.0
Ti41     Ti     0.0   0.3289   0.0857
Ti42     Ti     0.0   0.4143   0.1711
Ti43     Ti     0.0857   0.3289   0.0
Ti44     Ti     0.1711   0.4143   0.0
Ti45     Ti     0.0   0.3289   0.9143
Ti46     Ti     0.0   0.4143   0.8289
Ti47     Ti     0.0857   0.5   0.8289
Ti48     Ti     0.1711   0.5   0.9143
Ti49     Ti     0.6711   0.0   0.9143
Ti50     Ti     0.5857   0.0   0.8289
Ti51     Ti     0.5857   0.1711   0.0
Ti52     Ti     0.6711   0.0857   0.0
Ti53     Ti     0.5857   0.0   0.1711
Ti54     Ti     0.6711   0.0   0.0857
Ti55     Ti     0.6711   0.9143   0.0
Ti56     Ti     0.5857   0.8289   0.0
Ti57     Ti     0.5   0.9143   0.8289
Ti58     Ti     0.5   0.8289   0.9143
Ti59     Ti     0.5   0.9143   0.1711
Ti60     Ti     0.5   0.8289   0.0857
Ti61     Ti     0.5   0.0857   0.1711
Ti62     Ti     0.5   0.1711   0.0857
Ti63     Ti     0.3289   0.9143   0.0
Ti64     Ti     0.4143   0.8289   0.0
Ti65     Ti     0.3289   0.0   0.0857
Ti66     Ti     0.4143   0.0   0.1711
Ti67     Ti     0.3289   0.0857   0.0
Ti68     Ti     0.4143   0.1711   0.0
Ti69     Ti     0.3289   0.0   0.9143
Ti70     Ti     0.4143   0.0   0.8289
Ti71     Ti     0.5   0.0857   0.8289
Ti72     Ti     0.5   0.1711   0.9143
Ti73     Ti     0.0   0.9143   0.6711
Ti74     Ti     0.0   0.8289   0.5857
Ti75     Ti     0.1711   0.0   0.5857
Ti76     Ti     0.0857   0.0   0.6711
Ti77     Ti     0.0   0.1711   0.5857
Ti78     Ti     0.0   0.0857   0.6711
Ti79     Ti     0.9143   0.0   0.6711
Ti80     Ti     0.8289   0.0   0.5857
Ti81     Ti     0.9143   0.8289   0.5
Ti82     Ti     0.8289   0.9143   0.5
Ti83     Ti     0.9143   0.1711   0.5
Ti84     Ti     0.8289   0.0857   0.5
Ti85     Ti     0.0857   0.8289   0.5
Ti86     Ti     0.1711   0.9143   0.5
Ti87     Ti     0.0   0.9143   0.3289
Ti88     Ti     0.0   0.8289   0.4143
Ti89     Ti     0.9143   0.0   0.3289
Ti90     Ti     0.8289   0.0   0.4143
Ti91     Ti     0.0857   0.0   0.3289
Ti92     Ti     0.1711   0.0   0.4143
Ti93     Ti     0.0   0.1711   0.4143
Ti94     Ti     0.0   0.0857   0.3289
Ti95     Ti     0.0857   0.1711   0.5
Ti96     Ti     0.1711   0.0857   0.5
Er97     Er     0.6688   0.6688   0.0
Ce98     Ce     0.5846   0.5846   0.0
Er99     Er     0.8312   0.8312   0.0
Ce100     Ce     0.9154   0.9154   0.0
V101     V     0.8014   0.7155   0.0
V102     V     0.7845   0.6986   0.0
V103     V     0.7155   0.8014   0.0
V104     V     0.6986   0.7845   0.0
V105     V     0.7155   0.0   0.1986
V106     V     0.6986   0.0   0.2155
V107     V     0.8014   0.0   0.2845
V108     V     0.7845   0.0   0.3014
Er109     Er     0.6688   0.0   0.3312
Ce110     Ce     0.5846   0.0   0.4154
Er111     Er     0.8312   0.0   0.1688
Ce112     Ce     0.9154   0.0   0.0846
V113     V     0.7155   0.1986   0.0
V114     V     0.6986   0.2155   0.0
V115     V     0.8014   0.2845   0.0
V116     V     0.7845   0.3014   0.0
Er117     Er     0.6688   0.3312   0.0
Ce118     Ce     0.5846   0.4154   0.0
Er119     Er     0.8312   0.1688   0.0
Ce120     Ce     0.9154   0.0846   0.0
Er121     Er     0.6688   0.0   0.6688
Ce122     Ce     0.5846   0.0   0.5846
Er123     Er     0.8312   0.0   0.8312
Ce124     Ce     0.9154   0.0   0.9154
V125     V     0.7155   0.0   0.8014
V126     V     0.6986   0.0   0.7845
V127     V     0.8014   0.0   0.7155
V128     V     0.7845   0.0   0.6986
V129     V     0.0   0.7155   0.1986
V130     V     0.0   0.6986   0.2155
V131     V     0.0   0.8014   0.2845
V132     V     0.0   0.7845   0.3014
Er133     Er     0.0   0.6688   0.3312
Ce134     Ce     0.0   0.5846   0.4154
Er135     Er     0.0   0.8312   0.1688
Ce136     Ce     0.0   0.9154   0.0846
V137     V     0.1986   0.7155   0.0
V138     V     0.2155   0.6986   0.0
V139     V     0.2845   0.8014   0.0
V140     V     0.3014   0.7845   0.0
Er141     Er     0.3312   0.6688   0.0
Ce142     Ce     0.4154   0.5846   0.0
Er143     Er     0.1688   0.8312   0.0
Ce144     Ce     0.0846   0.9154   0.0
Er145     Er     0.0   0.6688   0.6688
Ce146     Ce     0.0   0.5846   0.5846
Er147     Er     0.0   0.8312   0.8312
Ce148     Ce     0.0   0.9154   0.9154
V149     V     0.0   0.7155   0.8014
V150     V     0.0   0.6986   0.7845
V151     V     0.0   0.8014   0.7155
V152     V     0.0   0.7845   0.6986
V153     V     0.0   0.1986   0.7155
V154     V     0.0   0.2155   0.6986
V155     V     0.0   0.2845   0.8014
V156     V     0.0   0.3014   0.7845
Er157     Er     0.0   0.3312   0.6688
Ce158     Ce     0.0   0.4154   0.5846
Er159     Er     0.0   0.1688   0.8312
Ce160     Ce     0.0   0.0846   0.9154
V161     V     0.1986   0.0   0.7155
V162     V     0.2155   0.0   0.6986
V163     V     0.2845   0.0   0.8014
V164     V     0.3014   0.0   0.7845
Er165     Er     0.3312   0.0   0.6688
Ce166     Ce     0.4154   0.0   0.5846
Er167     Er     0.1688   0.0   0.8312
Ce168     Ce     0.0846   0.0   0.9154
V169     V     0.1986   0.5   0.7845
V170     V     0.2155   0.5   0.8014
Er171     Er     0.1688   0.5   0.6688
Ce172     Ce     0.0846   0.5   0.5846
Er173     Er     0.3312   0.5   0.8312
Ce174     Ce     0.4154   0.5   0.9154
V175     V     0.2845   0.5   0.6986
V176     V     0.3014   0.5   0.7155
V177     V     0.5   0.1986   0.7845
V178     V     0.5   0.2155   0.8014
Er179     Er     0.5   0.1688   0.6688
Ce180     Ce     0.5   0.0846   0.5846
Er181     Er     0.5   0.3312   0.8312
Ce182     Ce     0.5   0.4154   0.9154
V183     V     0.5   0.2845   0.6986
V184     V     0.5   0.3014   0.7155
V185     V     0.1986   0.7845   0.5
V186     V     0.2155   0.8014   0.5
Er187     Er     0.1688   0.6688   0.5
Ce188     Ce     0.0846   0.5846   0.5
Er189     Er     0.3312   0.8312   0.5
Ce190     Ce     0.4154   0.9154   0.5
V191     V     0.2845   0.6986   0.5
V192     V     0.3014   0.7155   0.5
Er193     Er     0.5   0.6688   0.8312
Ce194     Ce     0.5   0.5846   0.9154
V195     V     0.5   0.8014   0.7845
V196     V     0.5   0.7845   0.8014
Er197     Er     0.5   0.8312   0.6688
Ce198     Ce     0.5   0.9154   0.5846
V199     V     0.5   0.7155   0.6986
V200     V     0.5   0.6986   0.7155
V201     V     0.5   0.8014   0.2155
V202     V     0.5   0.7845   0.1986
Er203     Er     0.5   0.6688   0.1688
Ce204     Ce     0.5   0.5846   0.0846
Er205     Er     0.5   0.8312   0.3312
Ce206     Ce     0.5   0.9154   0.4154
V207     V     0.5   0.7155   0.3014
V208     V     0.5   0.6986   0.2845
Er209     Er     0.6688   0.8312   0.5
Ce210     Ce     0.5846   0.9154   0.5
V211     V     0.8014   0.7845   0.5
V212     V     0.7845   0.8014   0.5
Er213     Er     0.8312   0.6688   0.5
Ce214     Ce     0.9154   0.5846   0.5
V215     V     0.7155   0.6986   0.5
V216     V     0.6986   0.7155   0.5
Er217     Er     0.6688   0.5   0.8312
Ce218     Ce     0.5846   0.5   0.9154
V219     V     0.8014   0.5   0.7845
V220     V     0.7845   0.5   0.8014
Er221     Er     0.8312   0.5   0.6688
Ce222     Ce     0.9154   0.5   0.5846
V223     V     0.7155   0.5   0.6986
V224     V     0.6986   0.5   0.7155
V225     V     0.8014   0.2155   0.5
V226     V     0.7845   0.1986   0.5
Er227     Er     0.6688   0.1688   0.5
Ce228     Ce     0.5846   0.0846   0.5
Er229     Er     0.8312   0.3312   0.5
Ce230     Ce     0.9154   0.4154   0.5
V231     V     0.7155   0.3014   0.5
V232     V     0.6986   0.2845   0.5
V233     V     0.8014   0.5   0.2155
V234     V     0.7845   0.5   0.1986
Er235     Er     0.6688   0.5   0.1688
Ce236     Ce     0.5846   0.5   0.0846
Er237     Er     0.8312   0.5   0.3312
Ce238     Ce     0.9154   0.5   0.4154
V239     V     0.7155   0.5   0.3014
V240     V     0.6986   0.5   0.2845
V241     V     0.1986   0.5   0.2155
V242     V     0.2155   0.5   0.1986
Ce243     Ce     0.4154   0.5   0.0846
Er244     Er     0.3312   0.5   0.1688
V245     V     0.2845   0.5   0.3014
V246     V     0.3014   0.5   0.2845
Ce247     Ce     0.0846   0.5   0.4154
Er248     Er     0.1688   0.5   0.3312
Ce249     Ce     0.4154   0.4154   0.0
Er250     Er     0.3312   0.3312   0.0
V251     V     0.1986   0.2845   0.0
V252     V     0.2155   0.3014   0.0
V253     V     0.2845   0.1986   0.0
V254     V     0.3014   0.2155   0.0
Ce255     Ce     0.0846   0.0846   0.0
Er256     Er     0.1688   0.1688   0.0
Ce257     Ce     0.0   0.4154   0.4154
Er258     Er     0.0   0.3312   0.3312
V259     V     0.0   0.2845   0.1986
V260     V     0.0   0.3014   0.2155
V261     V     0.0   0.1986   0.2845
V262     V     0.0   0.2155   0.3014
Ce263     Ce     0.0   0.0846   0.0846
Er264     Er     0.0   0.1688   0.1688
V265     V     0.1986   0.2155   0.5
V266     V     0.2155   0.1986   0.5
Ce267     Ce     0.0846   0.4154   0.5
Er268     Er     0.1688   0.3312   0.5
V269     V     0.2845   0.3014   0.5
V270     V     0.3014   0.2845   0.5
Ce271     Ce     0.4154   0.0846   0.5
Er272     Er     0.3312   0.1688   0.5
V273     V     0.5   0.1986   0.2155
V274     V     0.5   0.2155   0.1986
Ce275     Ce     0.5   0.4154   0.0846
Er276     Er     0.5   0.3312   0.1688
V277     V     0.5   0.2845   0.3014
V278     V     0.5   0.3014   0.2845
Ce279     Ce     0.5   0.0846   0.4154
Er280     Er     0.5   0.1688   0.3312
Ce281     Ce     0.4154   0.0   0.4154
Er282     Er     0.3312   0.0   0.3312
V283     V     0.2845   0.0   0.1986
V284     V     0.3014   0.0   0.2155
V285     V     0.1986   0.0   0.2845
V286     V     0.2155   0.0   0.3014
Ce287     Ce     0.0846   0.0   0.0846
Er288     Er     0.1688   0.0   0.1688
loop_
_geom_bond_atom_site_label_1
_geom_bond_atom_site_label_2
_geom_bond_distance
_geom_bond_site_symmetry_2
_ccdc_geom_bond_type
Ti1     Ti2    10.026   .     S
Ti1     V200    10.076   .     S
Ti1     Ti7    10.066   .     S
Ti1     Ti5    10.066   .     S
Ti2     V199    10.076   .     S
Ti2     Ti9    10.066   .     S
Ti2     Ti3    10.066   .     S
Ti3     Ti4    10.026   .     S
Ti3     V216    10.076   .     S
Ti3     Ti12    10.066   .     S
Ti4     V215    10.076   .     S
Ti4     Ti16    10.066   .     S
Ti4     Ti6    10.066   .     S
Ti5     Ti6    10.026   .     S
Ti5     V224    10.076   .     S
Ti5     Ti13    10.066   .     S
Ti6     V223    10.076   .     S
Ti6     Ti18    10.066   .     S
Ti7     Ti8    10.026   .     S
Ti7     V176    10.076   .     S
Ti7     Ti13    10.066   .     S
Ti8     V175    10.076   .     S
Ti8     Ti23    10.066   .     S
Ti8     Ti10    10.066   .     S
Ti9     Ti10    10.026   .     S
Ti9     V192    10.076   .     S
Ti9     Ti12    10.066   .     S
Ti10     V191    10.076   .     S
Ti10     Ti21    10.066   .     S
Ti11     Ti12    10.026   .     S
Ti11     V208    10.076   .     S
Ti11     Ti22    10.066   .     S
Ti11     Ti15    10.066   .     S
Ti12     V207    10.076   .     S
Ti13     Ti14    10.026   .     S
Ti13     V184    10.076   .     S
Ti14     V183    10.076   .     S
Ti14     Ti24    10.066   .     S
Ti14     Ti17    10.066   .     S
Ti15     Ti16    10.026   .     S
Ti15     V240    10.076   .     S
Ti15     Ti20    10.066   .     S
Ti16     V239    10.076   .     S
Ti16     Ti18    10.066   .     S
Ti17     Ti18    10.026   .     S
Ti17     V232    10.076   .     S
Ti17     Ti19    10.066   .     S
Ti18     V231    10.076   .     S
Ti19     Ti20    10.026   .     S
Ti19     V277    10.076   .     S
Ti19     Ti24    10.066   .     S
Ti20     V278    10.076   .     S
Ti20     Ti22    10.066   .     S
Ti21     Ti22    10.026   .     S
Ti21     V245    10.076   .     S
Ti21     Ti23    10.066   .     S
Ti22     V246    10.076   .     S
Ti23     Ti24    10.026   .     S
Ti23     V269    10.076   .     S
Ti24     V270    10.076   .     S
Ti25     Ti26    10.026   .     S
Ti25     V149    10.076   .     S
Ti25     Ti28    10.066   1_556     S
Ti25     Ti31    10.066   1_456     S
Ti26     V150    10.076   .     S
Ti26     Ti47    10.066   .     S
Ti26     Ti33    10.066   1_455     S
Ti27     Ti28    10.026   .     S
Ti27     V138    10.076   .     S
Ti27     Ti38    10.066   .     S
Ti27     Ti48    10.066   1_554     S
Ti28     V137    10.076   .     S
Ti28     Ti30    10.066   .     S
Ti28     Ti25    10.066   1_554     S
Ti29     Ti30    10.026   .     S
Ti29     V130    10.076   .     S
Ti29     Ti37    10.066   .     S
Ti29     Ti35    10.066   1_455     S
Ti30     V129    10.076   .     S
Ti30     Ti31    10.066   1_455     S
Ti31     Ti32    10.026   .     S
Ti31     V101    10.076   .     S
Ti31     Ti30    10.066   1_655     S
Ti31     Ti25    10.066   1_654     S
Ti32     V102    10.076   .     S
Ti32     Ti36    10.066   .     S
Ti32     Ti34    10.066   1_554     S
Ti33     Ti34    10.026   .     S
Ti33     V219    10.076   .     S
Ti33     Ti26    10.066   1_655     S
Ti33     Ti46    10.066   1_655     S
Ti34     V220    10.076   .     S
Ti34     Ti32    10.066   1_556     S
Ti34     Ti40    10.066   1_556     S
Ti35     Ti36    10.026   .     S
Ti35     V233    10.076   .     S
Ti35     Ti29    10.066   1_655     S
Ti35     Ti42    10.066   1_655     S
Ti36     V234    10.076   .     S
Ti36     Ti40    10.066   .     S
Ti37     Ti38    10.026   .     S
Ti37     V241    10.076   .     S
Ti37     Ti42    10.066   .     S
Ti38     V242    10.076   .     S
Ti38     Ti44    10.066   .     S
Ti39     Ti40    10.026   .     S
Ti39     V115    10.076   .     S
Ti39     Ti41    10.066   1_655     S
Ti39     Ti45    10.066   1_654     S
Ti40     V116    10.076   .     S
Ti40     Ti34    10.066   1_554     S
Ti41     Ti42    10.026   .     S
Ti41     V259    10.076   .     S
Ti41     Ti43    10.066   .     S
Ti41     Ti39    10.066   1_455     S
Ti42     V260    10.076   .     S
Ti42     Ti35    10.066   1_455     S
Ti43     Ti44    10.026   .     S
Ti43     V251    10.076   .     S
Ti43     Ti45    10.066   1_554     S
Ti44     V252    10.076   .     S
Ti44     Ti48    10.066   1_554     S
Ti45     Ti46    10.026   .     S
Ti45     V155    10.076   .     S
Ti45     Ti43    10.066   1_556     S
Ti45     Ti39    10.066   1_456     S
Ti46     V156    10.076   .     S
Ti46     Ti47    10.066   .     S
Ti46     Ti33    10.066   1_455     S
Ti47     Ti48    10.026   .     S
Ti47     V169    10.076   .     S
Ti48     V170    10.076   .     S
Ti48     Ti27    10.066   1_556     S
Ti48     Ti44    10.066   1_556     S
Ti49     Ti50    10.026   .     S
Ti49     V125    10.076   .     S
Ti49     Ti52    10.066   1_556     S
Ti49     Ti55    10.066   1_546     S
Ti50     V126    10.076   .     S
Ti50     Ti71    10.066   .     S
Ti50     Ti57    10.066   1_545     S
Ti51     Ti52    10.026   .     S
Ti51     V114    10.076   .     S
Ti51     Ti62    10.066   .     S
Ti51     Ti72    10.066   1_554     S
Ti52     V113    10.076   .     S
Ti52     Ti54    10.066   .     S
Ti52     Ti49    10.066   1_554     S
Ti53     Ti54    10.026   .     S
Ti53     V106    10.076   .     S
Ti53     Ti61    10.066   .     S
Ti53     Ti59    10.066   1_545     S
Ti54     V105    10.076   .     S
Ti54     Ti55    10.066   1_545     S
Ti55     Ti56    10.026   .     S
Ti55     V103    10.076   .     S
Ti55     Ti54    10.066   1_565     S
Ti55     Ti49    10.066   1_564     S
Ti56     V104    10.076   .     S
Ti56     Ti60    10.066   .     S
Ti56     Ti58    10.066   1_554     S
Ti57     Ti58    10.026   .     S
Ti57     V195    10.076   .     S
Ti57     Ti50    10.066   1_565     S
Ti57     Ti70    10.066   1_565     S
Ti58     V196    10.076   .     S
Ti58     Ti56    10.066   1_556     S
Ti58     Ti64    10.066   1_556     S
Ti59     Ti60    10.026   .     S
Ti59     V201    10.076   .     S
Ti59     Ti53    10.066   1_565     S
Ti59     Ti66    10.066   1_565     S
Ti60     V202    10.076   .     S
Ti60     Ti64    10.066   .     S
Ti61     Ti62    10.026   .     S
Ti61     V273    10.076   .     S
Ti61     Ti66    10.066   .     S
Ti62     V274    10.076   .     S
Ti62     Ti68    10.066   .     S
Ti63     Ti64    10.026   .     S
Ti63     V139    10.076   .     S
Ti63     Ti65    10.066   1_565     S
Ti63     Ti69    10.066   1_564     S
Ti64     V140    10.076   .     S
Ti64     Ti58    10.066   1_554     S
Ti65     Ti66    10.026   .     S
Ti65     V283    10.076   .     S
Ti65     Ti67    10.066   .     S
Ti65     Ti63    10.066   1_545     S
Ti66     V284    10.076   .     S
Ti66     Ti59    10.066   1_545     S
Ti67     Ti68    10.026   .     S
Ti67     V253    10.076   .     S
Ti67     Ti69    10.066   1_554     S
Ti68     V254    10.076   .     S
Ti68     Ti72    10.066   1_554     S
Ti69     Ti70    10.026   .     S
Ti69     V163    10.076   .     S
Ti69     Ti67    10.066   1_556     S
Ti69     Ti63    10.066   1_546     S
Ti70     V164    10.076   .     S
Ti70     Ti71    10.066   .     S
Ti70     Ti57    10.066   1_545     S
Ti71     Ti72    10.026   .     S
Ti71     V177    10.076   .     S
Ti72     V178    10.076   .     S
Ti72     Ti51    10.066   1_556     S
Ti72     Ti68    10.066   1_556     S
Ti73     Ti74    10.026   .     S
Ti73     V151    10.076   .     S
Ti73     Ti76    10.066   1_565     S
Ti73     Ti79    10.066   1_465     S
Ti74     V152    10.076   .     S
Ti74     Ti85    10.066   .     S
Ti74     Ti81    10.066   1_455     S
Ti75     Ti76    10.026   .     S
Ti75     V162    10.076   .     S
Ti75     Ti96    10.066   .     S
Ti75     Ti86    10.066   1_545     S
Ti76     V161    10.076   .     S
Ti76     Ti78    10.066   .     S
Ti76     Ti73    10.066   1_545     S
Ti77     Ti78    10.026   .     S
Ti77     V154    10.076   .     S
Ti77     Ti95    10.066   .     S
Ti77     Ti83    10.066   1_455     S
Ti78     V153    10.076   .     S
Ti78     Ti79    10.066   1_455     S
Ti79     Ti80    10.026   .     S
Ti79     V127    10.076   .     S
Ti79     Ti78    10.066   1_655     S
Ti79     Ti73    10.066   1_645     S
Ti80     V128    10.076   .     S
Ti80     Ti84    10.066   .     S
Ti80     Ti82    10.066   1_545     S
Ti81     Ti82    10.026   .     S
Ti81     V211    10.076   .     S
Ti81     Ti74    10.066   1_655     S
Ti81     Ti88    10.066   1_655     S
Ti82     V212    10.076   .     S
Ti82     Ti80    10.066   1_565     S
Ti82     Ti90    10.066   1_565     S
Ti83     Ti84    10.026   .     S
Ti83     V225    10.076   .     S
Ti83     Ti77    10.066   1_655     S
Ti83     Ti93    10.066   1_655     S
Ti84     V226    10.076   .     S
Ti84     Ti90    10.066   .     S
Ti85     Ti86    10.026   .     S
Ti85     V185    10.076   .     S
Ti85     Ti88    10.066   .     S
Ti86     V186    10.076   .     S
Ti86     Ti75    10.066   1_565     S
Ti86     Ti92    10.066   1_565     S
Ti87     Ti88    10.026   .     S
Ti87     V131    10.076   .     S
Ti87     Ti91    10.066   1_565     S
Ti87     Ti89    10.066   1_465     S
Ti88     V132    10.076   .     S
Ti88     Ti81    10.066   1_455     S
Ti89     Ti90    10.026   .     S
Ti89     V107    10.076   .     S
Ti89     Ti94    10.066   1_655     S
Ti89     Ti87    10.066   1_645     S
Ti90     V108    10.076   .     S
Ti90     Ti82    10.066   1_545     S
Ti91     Ti92    10.026   .     S
Ti91     V285    10.076   .     S
Ti91     Ti94    10.066   .     S
Ti91     Ti87    10.066   1_545     S
Ti92     V286    10.076   .     S
Ti92     Ti96    10.066   .     S
Ti92     Ti86    10.066   1_545     S
Ti93     Ti94    10.026   .     S
Ti93     V262    10.076   .     S
Ti93     Ti95    10.066   .     S
Ti93     Ti83    10.066   1_455     S
Ti94     V261    10.076   .     S
Ti94     Ti89    10.066   1_455     S
Ti95     Ti96    10.026   .     S
Ti95     V265    10.076   .     S
Ti96     V266    10.076   .     S
Er97     V102    9.925   .     S
Er97     V104    9.925   .     S
Er97     Ce98    9.89   .     S
Ce98     Ce236    9.931   .     S
Ce98     Ce204    9.931   .     S
Ce98     Ce194    9.931   1_554     S
Ce98     Ce218    9.931   1_554     S
Er99     V103    9.925   .     S
Er99     V101    9.925   .     S
Er99     Ce100    9.89   .     S
Ce100     Ce112    9.931   1_565     S
Ce100     Ce136    9.931   1_655     S
Ce100     Ce148    9.931   1_654     S
Ce100     Ce124    9.931   1_564     S
V101     V103    10.089   .     S
V102     V104    10.089   .     S
V105     V107    10.089   .     S
V105     Er111    9.925   .     S
V106     V108    10.089   .     S
V106     Er109    9.925   .     S
V107     Er111    9.925   .     S
V108     Er109    9.925   .     S
Er109     Ce110    9.89   .     S
Ce110     Ce228    9.931   .     S
Ce110     Ce279    9.931   .     S
Ce110     Ce210    9.931   1_545     S
Ce110     Ce206    9.931   1_545     S
Er111     Ce112    9.89   .     S
Ce112     Ce100    9.931   1_545     S
Ce112     Ce136    9.931   1_645     S
Ce112     Ce120    9.931   .     S
Ce112     Ce263    9.931   1_655     S
V113     V115    10.089   .     S
V113     Er119    9.925   .     S
V114     V116    10.089   .     S
V114     Er117    9.925   .     S
V115     Er119    9.925   .     S
V116     Er117    9.925   .     S
Er117     Ce118    9.89   .     S
Ce118     Ce275    9.931   .     S
Ce118     Ce236    9.931   .     S
Ce118     Ce218    9.931   1_554     S
Ce118     Ce182    9.931   1_554     S
Er119     Ce120    9.89   .     S
Ce120     Ce263    9.931   1_655     S
Ce120     Ce124    9.931   1_554     S
Ce120     Ce160    9.931   1_654     S
Er121     V126    9.925   .     S
Er121     V128    9.925   .     S
Er121     Ce122    9.89   .     S
Ce122     Ce228    9.931   .     S
Ce122     Ce180    9.931   .     S
Ce122     Ce210    9.931   1_545     S
Ce122     Ce198    9.931   1_545     S
Er123     V127    9.925   .     S
Er123     V125    9.925   .     S
Er123     Ce124    9.89   .     S
Ce124     Ce120    9.931   1_556     S
Ce124     Ce160    9.931   1_655     S
Ce124     Ce100    9.931   1_546     S
Ce124     Ce148    9.931   1_645     S
V125     V127    10.089   .     S
V126     V128    10.089   .     S
V129     V131    10.089   .     S
V129     Er135    9.925   .     S
V130     V132    10.089   .     S
V130     Er133    9.925   .     S
V131     Er135    9.925   .     S
V132     Er133    9.925   .     S
Er133     Ce134    9.89   .     S
Ce134     Ce188    9.931   .     S
Ce134     Ce247    9.931   .     S
Ce134     Ce238    9.931   1_455     S
Ce134     Ce214    9.931   1_455     S
Er135     Ce136    9.89   .     S
Ce136     Ce100    9.931   1_455     S
Ce136     Ce112    9.931   1_465     S
Ce136     Ce144    9.931   .     S
Ce136     Ce287    9.931   1_565     S
V137     V139    10.089   .     S
V137     Er143    9.925   .     S
V138     V140    10.089   .     S
V138     Er141    9.925   .     S
V139     Er143    9.925   .     S
V140     Er141    9.925   .     S
Er141     Ce142    9.89   .     S
Ce142     Ce204    9.931   .     S
Ce142     Ce243    9.931   .     S
Ce142     Ce174    9.931   1_554     S
Ce142     Ce194    9.931   1_554     S
Er143     Ce144    9.89   .     S
Ce144     Ce287    9.931   1_565     S
Ce144     Ce148    9.931   1_554     S
Ce144     Ce168    9.931   1_564     S
Er145     V150    9.925   .     S
Er145     V152    9.925   .     S
Er145     Ce146    9.89   .     S
Ce146     Ce188    9.931   .     S
Ce146     Ce172    9.931   .     S
Ce146     Ce214    9.931   1_455     S
Ce146     Ce222    9.931   1_455     S
Er147     V151    9.925   .     S
Er147     V149    9.925   .     S
Er147     Ce148    9.89   .     S
Ce148     Ce100    9.931   1_456     S
Ce148     Ce124    9.931   1_465     S
Ce148     Ce144    9.931   1_556     S
Ce148     Ce168    9.931   1_565     S
V149     V151    10.089   .     S
V150     V152    10.089   .     S
V153     V155    10.089   .     S
V153     Er159    9.925   .     S
V154     V156    10.089   .     S
V154     Er157    9.925   .     S
V155     Er159    9.925   .     S
V156     Er157    9.925   .     S
Er157     Ce158    9.89   .     S
Ce158     Ce267    9.931   .     S
Ce158     Ce172    9.931   .     S
Ce158     Ce230    9.931   1_455     S
Ce158     Ce222    9.931   1_455     S
Er159     Ce160    9.89   .     S
Ce160     Ce124    9.931   1_455     S
Ce160     Ce120    9.931   1_456     S
Ce160     Ce168    9.931   .     S
Ce160     Ce255    9.931   1_556     S
V161     V163    10.089   .     S
V161     Er167    9.925   .     S
V162     V164    10.089   .     S
V162     Er165    9.925   .     S
V163     Er167    9.925   .     S
V164     Er165    9.925   .     S
Er165     Ce166    9.89   .     S
Ce166     Ce271    9.931   .     S
Ce166     Ce180    9.931   .     S
Ce166     Ce190    9.931   1_545     S
Ce166     Ce198    9.931   1_545     S
Er167     Ce168    9.89   .     S
Ce168     Ce148    9.931   1_545     S
Ce168     Ce144    9.931   1_546     S
Ce168     Ce255    9.931   1_556     S
V169     V175    10.089   .     S
V169     Er171    9.925   .     S
V170     V176    10.089   .     S
V170     Er173    9.925   .     S
Er171     V175    9.925   .     S
Er171     Ce172    9.89   .     S
Ce172     Ce188    9.931   .     S
Ce172     Ce267    9.931   .     S
Er173     V176    9.925   .     S
Er173     Ce174    9.89   .     S
Ce174     Ce142    9.931   1_556     S
Ce174     Ce194    9.931   .     S
Ce174     Ce182    9.931   .     S
Ce174     Ce249    9.931   1_556     S
V177     V183    10.089   .     S
V177     Er179    9.925   .     S
V178     V184    10.089   .     S
V178     Er181    9.925   .     S
Er179     V183    9.925   .     S
Er179     Ce180    9.89   .     S
Ce180     Ce271    9.931   .     S
Ce180     Ce228    9.931   .     S
Er181     V184    9.925   .     S
Er181     Ce182    9.89   .     S
Ce182     Ce249    9.931   1_556     S
Ce182     Ce218    9.931   .     S
Ce182     Ce118    9.931   1_556     S
V185     V191    10.089   .     S
V185     Er187    9.925   .     S
V186     V192    10.089   .     S
V186     Er189    9.925   .     S
Er187     V191    9.925   .     S
Er187     Ce188    9.89   .     S
Ce188     Ce247    9.931   .     S
Er189     V192    9.925   .     S
Er189     Ce190    9.89   .     S
Ce190     Ce166    9.931   1_565     S
Ce190     Ce198    9.931   .     S
Ce190     Ce206    9.931   .     S
Ce190     Ce281    9.931   1_565     S
Er193     V200    9.925   .     S
Er193     V196    9.925   .     S
Er193     Ce194    9.89   .     S
Ce194     Ce142    9.931   1_556     S
Ce194     Ce98    9.931   1_556     S
Ce194     Ce218    9.931   .     S
V195     V199    10.089   .     S
V195     Er197    9.925   .     S
V196     V200    10.089   .     S
Er197     V199    9.925   .     S
Er197     Ce198    9.89   .     S
Ce198     Ce166    9.931   1_565     S
Ce198     Ce210    9.931   .     S
Ce198     Ce122    9.931   1_565     S
V201     V207    10.089   .     S
V201     Er205    9.925   .     S
V202     V208    10.089   .     S
V202     Er203    9.925   .     S
Er203     V208    9.925   .     S
Er203     Ce204    9.89   .     S
Ce204     Ce243    9.931   .     S
Ce204     Ce236    9.931   .     S
Er205     V207    9.925   .     S
Er205     Ce206    9.89   .     S
Ce206     Ce281    9.931   1_565     S
Ce206     Ce210    9.931   .     S
Ce206     Ce110    9.931   1_565     S
Er209     V216    9.925   .     S
Er209     V212    9.925   .     S
Er209     Ce210    9.89   .     S
Ce210     Ce122    9.931   1_565     S
Ce210     Ce110    9.931   1_565     S
V211     V215    10.089   .     S
V211     Er213    9.925   .     S
V212     V216    10.089   .     S
Er213     V215    9.925   .     S
Er213     Ce214    9.89   .     S
Ce214     Ce146    9.931   1_655     S
Ce214     Ce222    9.931   .     S
Ce214     Ce238    9.931   .     S
Ce214     Ce134    9.931   1_655     S
Er217     V224    9.925   .     S
Er217     V220    9.925   .     S
Er217     Ce218    9.89   .     S
Ce218     Ce98    9.931   1_556     S
Ce218     Ce118    9.931   1_556     S
V219     V223    10.089   .     S
V219     Er221    9.925   .     S
V220     V224    10.089   .     S
Er221     V223    9.925   .     S
Er221     Ce222    9.89   .     S
Ce222     Ce146    9.931   1_655     S
Ce222     Ce230    9.931   .     S
Ce222     Ce158    9.931   1_655     S
V225     V231    10.089   .     S
V225     Er229    9.925   .     S
V226     V232    10.089   .     S
V226     Er227    9.925   .     S
Er227     V232    9.925   .     S
Er227     Ce228    9.89   .     S
Ce228     Ce279    9.931   .     S
Er229     V231    9.925   .     S
Er229     Ce230    9.89   .     S
Ce230     Ce158    9.931   1_655     S
Ce230     Ce257    9.931   1_655     S
Ce230     Ce238    9.931   .     S
V233     V239    10.089   .     S
V233     Er237    9.925   .     S
V234     V240    10.089   .     S
V234     Er235    9.925   .     S
Er235     V240    9.925   .     S
Er235     Ce236    9.89   .     S
Ce236     Ce275    9.931   .     S
Er237     V239    9.925   .     S
Er237     Ce238    9.89   .     S
Ce238     Ce134    9.931   1_655     S
Ce238     Ce257    9.931   1_655     S
V241     V245    10.089   .     S
V241     Er248    9.925   .     S
V242     V246    10.089   .     S
V242     Er244    9.925   .     S
Ce243     Ce249    9.931   .     S
Ce243     Ce275    9.931   .     S
Ce243     Er244    9.89   .     S
Er244     V246    9.925   .     S
V245     Er248    9.925   .     S
Ce247     Ce267    9.931   .     S
Ce247     Ce257    9.931   .     S
Ce247     Er248    9.89   .     S
Ce249     Ce182    9.931   1_554     S
Ce249     Ce174    9.931   1_554     S
Ce249     Ce275    9.931   .     S
Ce249     Er250    9.89   .     S
Er250     V252    9.925   .     S
Er250     V254    9.925   .     S
V251     V253    10.089   .     S
V251     Er256    9.925   .     S
V252     V254    10.089   .     S
V253     Er256    9.925   .     S
Ce255     Ce168    9.931   1_554     S
Ce255     Ce160    9.931   1_554     S
Ce255     Ce287    9.931   .     S
Ce255     Ce263    9.931   .     S
Ce255     Er256    9.89   .     S
Ce257     Ce230    9.931   1_455     S
Ce257     Ce238    9.931   1_455     S
Ce257     Ce267    9.931   .     S
Ce257     Er258    9.89   .     S
Er258     V260    9.925   .     S
Er258     V262    9.925   .     S
V259     V261    10.089   .     S
V259     Er264    9.925   .     S
V260     V262    10.089   .     S
V261     Er264    9.925   .     S
Ce263     Ce120    9.931   1_455     S
Ce263     Ce112    9.931   1_455     S
Ce263     Ce287    9.931   .     S
Ce263     Er264    9.89   .     S
V265     V269    10.089   .     S
V265     Er268    9.925   .     S
V266     V270    10.089   .     S
V266     Er272    9.925   .     S
Ce267     Er268    9.89   .     S
Er268     V269    9.925   .     S
V270     Er272    9.925   .     S
Ce271     Ce281    9.931   .     S
Ce271     Ce279    9.931   .     S
Ce271     Er272    9.89   .     S
V273     V277    10.089   .     S
V273     Er280    9.925   .     S
V274     V278    10.089   .     S
V274     Er276    9.925   .     S
Ce275     Er276    9.89   .     S
Er276     V278    9.925   .     S
V277     Er280    9.925   .     S
Ce279     Ce281    9.931   .     S
Ce279     Er280    9.89   .     S
Ce281     Ce206    9.931   1_545     S
Ce281     Ce190    9.931   1_545     S
Ce281     Er282    9.89   .     S
Er282     V284    9.925   .     S
Er282     V286    9.925   .     S
V283     V285    10.089   .     S
V283     Er288    9.925   .     S
V284     V286    10.089   .     S
V285     Er288    9.925   .     S
Ce287     Ce144    9.931   1_545     S
Ce287     Ce136    9.931   1_545     S
Ce287     Er288    9.89   .     S
