data_dnfa
_audit_creation_date              2020-02-02
_audit_creation_method            'Pymatgen'
_symmetry_space_group_name_H-M    'P1'
_symmetry_Int_Tables_number       1
loop_
_symmetry_equiv_pos_as_xyz
  x,y,z
_cell_length_a                    131.0137
_cell_length_b                    131.0137
_cell_length_c                    131.0137
_cell_angle_alpha                 90.0
_cell_angle_beta                 90.0
_cell_angle_gamma                 90.0
loop_
_atom_site_label
_atom_site_type_symbol
_atom_site_fract_x
_atom_site_fract_y
_atom_site_fract_z
Er1     Er     0.493   0.547   0.649
Er2     Er     0.547   0.493   0.649
Er3     Er     0.649   0.493   0.547
Er4     Er     0.649   0.547   0.493
Er5     Er     0.547   0.649   0.493
Er6     Er     0.493   0.649   0.547
Er7     Er     0.351   0.453   0.507
Er8     Er     0.351   0.507   0.453
Er9     Er     0.453   0.351   0.507
Er10     Er     0.507   0.351   0.453
Er11     Er     0.453   0.507   0.351
Er12     Er     0.507   0.453   0.351
Ce13     Ce     0.5   0.446   0.554
V14     V     0.4846   0.4139   0.5366
V15     V     0.5154   0.4634   0.5861
Ti16     Ti     0.5   0.392   0.608
Ce17     Ce     0.446   0.5   0.554
V18     V     0.4139   0.4846   0.5366
V19     V     0.4634   0.5154   0.5861
Ti20     Ti     0.392   0.5   0.608
Ce21     Ce     0.554   0.446   0.5
V22     V     0.5366   0.4139   0.4846
V23     V     0.5861   0.4634   0.5154
Ti24     Ti     0.608   0.392   0.5
Ce25     Ce     0.554   0.5   0.446
V26     V     0.5366   0.4846   0.4139
V27     V     0.5861   0.5154   0.4634
Ti28     Ti     0.608   0.5   0.392
Ce29     Ce     0.446   0.554   0.5
V30     V     0.4139   0.5366   0.4846
V31     V     0.4634   0.5861   0.5154
Ti32     Ti     0.392   0.608   0.5
Ce33     Ce     0.5   0.554   0.446
V34     V     0.4846   0.5366   0.4139
V35     V     0.5154   0.5861   0.4634
Ti36     Ti     0.5   0.608   0.392
Er37     Er     0.649   0.257   0.203
Er38     Er     0.649   0.203   0.257
Er39     Er     0.351   0.297   0.243
Er40     Er     0.351   0.243   0.297
Er41     Er     0.547   0.101   0.257
Er42     Er     0.493   0.101   0.203
Er43     Er     0.453   0.243   0.399
Er44     Er     0.507   0.297   0.399
Er45     Er     0.493   0.203   0.101
Er46     Er     0.547   0.257   0.101
Er47     Er     0.453   0.399   0.243
Er48     Er     0.507   0.399   0.297
Ce49     Ce     0.554   0.25   0.304
V50     V     0.5861   0.2346   0.2866
V51     V     0.5366   0.2654   0.3361
Ti52     Ti     0.608   0.25   0.358
Ce53     Ce     0.554   0.304   0.25
V54     V     0.5366   0.3361   0.2654
V55     V     0.5861   0.2866   0.2346
Ti56     Ti     0.608   0.358   0.25
Ce57     Ce     0.446   0.196   0.25
V58     V     0.4139   0.2134   0.2654
V59     V     0.4634   0.1639   0.2346
Ti60     Ti     0.392   0.142   0.25
Ce61     Ce     0.5   0.196   0.304
V62     V     0.5154   0.1639   0.2866
V63     V     0.4846   0.2134   0.3361
Ti64     Ti     0.5   0.142   0.358
Ce65     Ce     0.5   0.304   0.196
V66     V     0.5154   0.2866   0.1639
V67     V     0.4846   0.3361   0.2134
Ti68     Ti     0.5   0.358   0.142
Ce69     Ce     0.446   0.25   0.196
V70     V     0.4634   0.2346   0.1639
V71     V     0.4139   0.2654   0.2134
Ti72     Ti     0.392   0.25   0.142
Er73     Er     0.257   0.203   0.649
Er74     Er     0.203   0.257   0.649
Er75     Er     0.297   0.243   0.351
Er76     Er     0.243   0.297   0.351
Er77     Er     0.203   0.101   0.493
Er78     Er     0.257   0.101   0.547
Er79     Er     0.243   0.399   0.453
Er80     Er     0.297   0.399   0.507
Er81     Er     0.101   0.203   0.493
Er82     Er     0.101   0.257   0.547
Er83     Er     0.399   0.243   0.453
Er84     Er     0.399   0.297   0.507
Ce85     Ce     0.304   0.196   0.5
V86     V     0.2866   0.1639   0.5154
V87     V     0.3361   0.2134   0.4846
Ti88     Ti     0.358   0.142   0.5
Ce89     Ce     0.25   0.196   0.446
V90     V     0.2654   0.2134   0.4139
V91     V     0.2346   0.1639   0.4634
Ti92     Ti     0.25   0.142   0.392
Ce93     Ce     0.196   0.25   0.446
V94     V     0.2134   0.2654   0.4139
V95     V     0.1639   0.2346   0.4634
Ti96     Ti     0.142   0.25   0.392
Ce97     Ce     0.196   0.304   0.5
V98     V     0.2134   0.3361   0.4846
V99     V     0.1639   0.2866   0.5154
Ti100     Ti     0.142   0.358   0.5
Ce101     Ce     0.304   0.25   0.554
V102     V     0.3361   0.2654   0.5366
V103     V     0.2866   0.2346   0.5861
Ti104     Ti     0.358   0.25   0.608
Ce105     Ce     0.25   0.304   0.554
V106     V     0.2346   0.2866   0.5861
V107     V     0.2654   0.3361   0.5366
Ti108     Ti     0.25   0.358   0.608
Er109     Er     0.851   0.243   0.797
Er110     Er     0.851   0.297   0.743
Er111     Er     0.953   0.243   0.899
Er112     Er     0.007   0.297   0.899
Er113     Er     0.993   0.203   0.601
Er114     Er     0.047   0.257   0.601
Er115     Er     0.993   0.101   0.703
Er116     Er     0.047   0.101   0.757
Er117     Er     0.007   0.399   0.797
Er118     Er     0.953   0.399   0.743
Er119     Er     0.149   0.203   0.757
Er120     Er     0.149   0.257   0.703
Ce121     Ce     0.946   0.25   0.696
V122     V     0.9634   0.2346   0.6639
V123     V     0.9139   0.2654   0.7134
Ti124     Ti     0.892   0.25   0.642
Ce125     Ce     0.946   0.196   0.75
V126     V     0.9634   0.1639   0.7346
V127     V     0.9139   0.2134   0.7654
Ti128     Ti     0.892   0.142   0.75
Ce129     Ce     0.0   0.196   0.804
V130     V     0.9846   0.2134   0.8361
V131     V     0.0154   0.1639   0.7866
Ti132     Ti     0.0   0.142   0.858
Ce133     Ce     0.054   0.25   0.804
V134     V     0.0366   0.2654   0.8361
V135     V     0.0861   0.2346   0.7866
Ti136     Ti     0.108   0.25   0.858
Ce137     Ce     0.0   0.304   0.696
V138     V     0.9846   0.3361   0.7134
V139     V     0.0154   0.2866   0.6639
Ti140     Ti     0.0   0.358   0.642
Ce141     Ce     0.054   0.304   0.75
V142     V     0.0366   0.3361   0.7654
V143     V     0.0861   0.2866   0.7346
Ti144     Ti     0.108   0.358   0.75
Er145     Er     0.797   0.243   0.851
Er146     Er     0.743   0.297   0.851
Er147     Er     0.703   0.101   0.993
Er148     Er     0.757   0.101   0.047
Er149     Er     0.601   0.257   0.047
Er150     Er     0.601   0.203   0.993
Er151     Er     0.797   0.399   0.007
Er152     Er     0.743   0.399   0.953
Er153     Er     0.703   0.257   0.149
Er154     Er     0.757   0.203   0.149
Ce155     Ce     0.696   0.25   0.946
V156     V     0.6639   0.2346   0.9634
V157     V     0.7134   0.2654   0.9139
Ti158     Ti     0.642   0.25   0.892
Ce159     Ce     0.75   0.196   0.946
V160     V     0.7346   0.1639   0.9634
V161     V     0.7654   0.2134   0.9139
Ti162     Ti     0.75   0.142   0.892
Ce163     Ce     0.696   0.304   0.0
V164     V     0.7134   0.3361   0.9846
V165     V     0.6639   0.2866   0.0154
Ti166     Ti     0.642   0.358   0.0
Ce167     Ce     0.75   0.304   0.054
V168     V     0.7654   0.3361   0.0366
V169     V     0.7346   0.2866   0.0861
Ti170     Ti     0.75   0.358   0.108
Ce171     Ce     0.804   0.25   0.054
V172     V     0.7866   0.2346   0.0861
V173     V     0.8361   0.2654   0.0366
Ti174     Ti     0.858   0.25   0.108
Ce175     Ce     0.804   0.196   0.0
V176     V     0.8361   0.2134   0.9846
V177     V     0.7866   0.1639   0.0154
Ti178     Ti     0.858   0.142   0.0
Er179     Er     0.899   0.297   0.007
Er180     Er     0.899   0.243   0.953
Er181     Er     0.757   0.649   0.703
Er182     Er     0.703   0.649   0.757
Er183     Er     0.899   0.453   0.743
Er184     Er     0.899   0.507   0.797
Er185     Er     0.601   0.493   0.703
Er186     Er     0.601   0.547   0.757
Er187     Er     0.703   0.493   0.601
Er188     Er     0.757   0.547   0.601
Er189     Er     0.797   0.351   0.743
Er190     Er     0.743   0.351   0.797
Er191     Er     0.743   0.453   0.899
Er192     Er     0.797   0.507   0.899
Ce193     Ce     0.804   0.5   0.696
V194     V     0.7866   0.5154   0.6639
V195     V     0.8361   0.4846   0.7134
Ti196     Ti     0.858   0.5   0.642
Ce197     Ce     0.696   0.5   0.804
V198     V     0.6639   0.5154   0.7866
V199     V     0.7134   0.4846   0.8361
Ti200     Ti     0.642   0.5   0.858
Ce201     Ce     0.804   0.554   0.75
V202     V     0.8361   0.5366   0.7654
V203     V     0.7866   0.5861   0.7346
Ti204     Ti     0.858   0.608   0.75
Ce205     Ce     0.75   0.554   0.804
V206     V     0.7346   0.5861   0.7866
V207     V     0.7654   0.5366   0.8361
Ti208     Ti     0.75   0.608   0.858
Ce209     Ce     0.696   0.446   0.75
V210     V     0.7134   0.4139   0.7654
V211     V     0.6639   0.4634   0.7346
Ti212     Ti     0.642   0.392   0.75
Ce213     Ce     0.75   0.446   0.696
V214     V     0.7346   0.4634   0.6639
V215     V     0.7654   0.4139   0.7134
Ti216     Ti     0.75   0.392   0.642
Er217     Er     0.899   0.797   0.507
Er218     Er     0.899   0.743   0.453
Er219     Er     0.743   0.797   0.351
Er220     Er     0.797   0.743   0.351
Er221     Er     0.601   0.703   0.493
Er222     Er     0.601   0.757   0.547
Er223     Er     0.797   0.899   0.507
Er224     Er     0.743   0.899   0.453
Er225     Er     0.703   0.601   0.493
Er226     Er     0.757   0.601   0.547
Ce227     Ce     0.804   0.696   0.5
V228     V     0.8361   0.7134   0.4846
V229     V     0.7866   0.6639   0.5154
Ti230     Ti     0.858   0.642   0.5
Ce231     Ce     0.696   0.804   0.5
V232     V     0.7134   0.8361   0.4846
V233     V     0.6639   0.7866   0.5154
Ti234     Ti     0.642   0.858   0.5
Ce235     Ce     0.804   0.75   0.554
V236     V     0.8361   0.7654   0.5366
V237     V     0.7866   0.7346   0.5861
Ti238     Ti     0.858   0.75   0.608
Ce239     Ce     0.75   0.804   0.554
V240     V     0.7654   0.8361   0.5366
V241     V     0.7346   0.7866   0.5861
Ti242     Ti     0.75   0.858   0.608
Ce243     Ce     0.696   0.75   0.446
V244     V     0.6639   0.7346   0.4634
V245     V     0.7134   0.7654   0.4139
Ti246     Ti     0.642   0.75   0.392
Ce247     Ce     0.75   0.696   0.446
V248     V     0.7654   0.7134   0.4139
V249     V     0.7346   0.6639   0.4634
Ti250     Ti     0.75   0.642   0.392
Er251     Er     0.703   0.757   0.649
Er252     Er     0.757   0.703   0.649
Er253     Er     0.649   0.703   0.757
Er254     Er     0.649   0.757   0.703
Er255     Er     0.493   0.601   0.703
Er256     Er     0.547   0.601   0.757
Er257     Er     0.351   0.743   0.797
Er258     Er     0.351   0.797   0.743
Er259     Er     0.493   0.703   0.601
Er260     Er     0.547   0.757   0.601
Er261     Er     0.507   0.899   0.797
Er262     Er     0.453   0.899   0.743
Er263     Er     0.507   0.797   0.899
Er264     Er     0.453   0.743   0.899
Ce265     Ce     0.5   0.696   0.804
V266     V     0.4846   0.7134   0.8361
V267     V     0.5154   0.6639   0.7866
Ti268     Ti     0.5   0.642   0.858
Ce269     Ce     0.5   0.804   0.696
V270     V     0.4846   0.8361   0.7134
V271     V     0.5154   0.7866   0.6639
Ti272     Ti     0.5   0.858   0.642
Ce273     Ce     0.554   0.75   0.804
V274     V     0.5366   0.7654   0.8361
V275     V     0.5861   0.7346   0.7866
Ti276     Ti     0.608   0.75   0.858
Ce277     Ce     0.554   0.804   0.75
V278     V     0.5366   0.8361   0.7654
V279     V     0.5861   0.7866   0.7346
Ti280     Ti     0.608   0.858   0.75
Ce281     Ce     0.446   0.75   0.696
V282     V     0.4139   0.7654   0.7134
V283     V     0.4634   0.7346   0.6639
Ti284     Ti     0.392   0.75   0.642
Ce285     Ce     0.446   0.696   0.75
V286     V     0.4634   0.6639   0.7346
V287     V     0.4139   0.7134   0.7654
Ti288     Ti     0.392   0.642   0.75
Er289     Er     0.649   0.047   0.993
Er290     Er     0.649   0.993   0.047
Er291     Er     0.453   0.007   0.851
Er292     Er     0.507   0.953   0.851
Er293     Er     0.453   0.851   0.007
Er294     Er     0.507   0.851   0.953
Er295     Er     0.493   0.149   0.047
Er296     Er     0.547   0.149   0.993
Er297     Er     0.493   0.047   0.149
Er298     Er     0.547   0.993   0.149
Ce299     Ce     0.446   0.0   0.054
V300     V     0.4139   0.9846   0.0366
V301     V     0.4634   0.0154   0.0861
Ti302     Ti     0.392   0.0   0.108
Ce303     Ce     0.446   0.054   0.0
V304     V     0.4139   0.0366   0.9846
V305     V     0.4634   0.0861   0.0154
Ti306     Ti     0.392   0.108   0.0
Ce307     Ce     0.5   0.946   0.054
V308     V     0.5154   0.9634   0.0861
V309     V     0.4846   0.9139   0.0366
Ti310     Ti     0.5   0.892   0.108
Ce311     Ce     0.5   0.054   0.946
V312     V     0.5154   0.0861   0.9634
V313     V     0.4846   0.0366   0.9139
Ti314     Ti     0.5   0.108   0.892
Ce315     Ce     0.554   0.0   0.946
V316     V     0.5861   0.0154   0.9634
V317     V     0.5366   0.9846   0.9139
Ti318     Ti     0.608   0.0   0.892
Ce319     Ce     0.554   0.946   0.0
V320     V     0.5861   0.9634   0.0154
V321     V     0.5366   0.9139   0.9846
Ti322     Ti     0.608   0.892   0.0
Er323     Er     0.351   0.953   0.007
Er324     Er     0.351   0.007   0.953
Er325     Er     0.203   0.601   0.993
Er326     Er     0.257   0.601   0.047
Er327     Er     0.243   0.797   0.851
Er328     Er     0.297   0.743   0.851
Er329     Er     0.243   0.899   0.953
Er330     Er     0.297   0.899   0.007
Er331     Er     0.101   0.703   0.993
Er332     Er     0.101   0.757   0.047
Er333     Er     0.399   0.797   0.007
Er334     Er     0.399   0.743   0.953
Er335     Er     0.257   0.703   0.149
Er336     Er     0.203   0.757   0.149
Ce337     Ce     0.304   0.75   0.054
V338     V     0.2866   0.7346   0.0861
V339     V     0.3361   0.7654   0.0366
Ti340     Ti     0.358   0.75   0.108
Ce341     Ce     0.304   0.696   0.0
V342     V     0.2866   0.6639   0.0154
V343     V     0.3361   0.7134   0.9846
Ti344     Ti     0.358   0.642   0.0
Ce345     Ce     0.25   0.696   0.946
V346     V     0.2346   0.6639   0.9634
V347     V     0.2654   0.7134   0.9139
Ti348     Ti     0.25   0.642   0.892
Ce349     Ce     0.196   0.75   0.946
V350     V     0.1639   0.7346   0.9634
V351     V     0.2134   0.7654   0.9139
Ti352     Ti     0.142   0.75   0.892
Ce353     Ce     0.196   0.804   0.0
V354     V     0.2134   0.8361   0.9846
V355     V     0.1639   0.7866   0.0154
Ti356     Ti     0.142   0.858   0.0
Ce357     Ce     0.25   0.804   0.054
V358     V     0.2654   0.8361   0.0366
V359     V     0.2346   0.7866   0.0861
Ti360     Ti     0.25   0.858   0.108
Er361     Er     0.243   0.851   0.797
Er362     Er     0.297   0.851   0.743
Er363     Er     0.101   0.993   0.703
Er364     Er     0.101   0.047   0.757
Er365     Er     0.399   0.953   0.743
Er366     Er     0.399   0.007   0.797
Er367     Er     0.257   0.047   0.601
Er368     Er     0.203   0.993   0.601
Er369     Er     0.297   0.007   0.899
Er370     Er     0.243   0.953   0.899
Er371     Er     0.203   0.149   0.757
Er372     Er     0.257   0.149   0.703
Ce373     Ce     0.304   0.0   0.696
V374     V     0.2866   0.0154   0.6639
V375     V     0.3361   0.9846   0.7134
Ti376     Ti     0.358   0.0   0.642
Ce377     Ce     0.25   0.946   0.696
V378     V     0.2346   0.9634   0.6639
V379     V     0.2654   0.9139   0.7134
Ti380     Ti     0.25   0.892   0.642
Ce381     Ce     0.196   0.946   0.75
V382     V     0.1639   0.9634   0.7346
V383     V     0.2134   0.9139   0.7654
Ti384     Ti     0.142   0.892   0.75
Ce385     Ce     0.196   0.0   0.804
V386     V     0.2134   0.9846   0.8361
V387     V     0.1639   0.0154   0.7866
Ti388     Ti     0.142   0.0   0.858
Ce389     Ce     0.25   0.054   0.804
V390     V     0.2346   0.0861   0.7866
V391     V     0.2654   0.0366   0.8361
Ti392     Ti     0.25   0.108   0.858
Ce393     Ce     0.304   0.054   0.75
V394     V     0.2866   0.0861   0.7346
V395     V     0.3361   0.0366   0.7654
Ti396     Ti     0.358   0.108   0.75
Er397     Er     0.047   0.993   0.649
Er398     Er     0.993   0.047   0.649
Er399     Er     0.007   0.851   0.453
Er400     Er     0.953   0.851   0.507
Er401     Er     0.851   0.007   0.453
Er402     Er     0.851   0.953   0.507
Er403     Er     0.149   0.047   0.493
Er404     Er     0.149   0.993   0.547
Er405     Er     0.993   0.149   0.547
Er406     Er     0.047   0.149   0.493
Ce407     Ce     0.054   0.0   0.446
V408     V     0.0366   0.9846   0.4139
V409     V     0.0861   0.0154   0.4634
Ti410     Ti     0.108   0.0   0.392
Ce411     Ce     0.0   0.054   0.446
V412     V     0.9846   0.0366   0.4139
V413     V     0.0154   0.0861   0.4634
Ti414     Ti     0.0   0.108   0.392
Ce415     Ce     0.054   0.946   0.5
V416     V     0.0861   0.9634   0.5154
V417     V     0.0366   0.9139   0.4846
Ti418     Ti     0.108   0.892   0.5
Ce419     Ce     0.946   0.054   0.5
V420     V     0.9634   0.0861   0.5154
V421     V     0.9139   0.0366   0.4846
Ti422     Ti     0.892   0.108   0.5
Ce423     Ce     0.0   0.946   0.554
V424     V     0.0154   0.9634   0.5861
V425     V     0.9846   0.9139   0.5366
Ti426     Ti     0.0   0.892   0.608
Ce427     Ce     0.946   0.0   0.554
V428     V     0.9634   0.0154   0.5861
V429     V     0.9139   0.9846   0.5366
Ti430     Ti     0.892   0.0   0.608
Er431     Er     0.953   0.007   0.351
Er432     Er     0.007   0.953   0.351
Er433     Er     0.007   0.453   0.851
Er434     Er     0.953   0.507   0.851
Er435     Er     0.851   0.453   0.007
Er436     Er     0.851   0.507   0.953
Er437     Er     0.047   0.649   0.993
Er438     Er     0.993   0.649   0.047
Er439     Er     0.007   0.351   0.953
Er440     Er     0.953   0.351   0.007
Er441     Er     0.149   0.493   0.047
Er442     Er     0.149   0.547   0.993
Ce443     Ce     0.054   0.446   0.0
V444     V     0.0366   0.4139   0.9846
V445     V     0.0861   0.4634   0.0154
Ti446     Ti     0.108   0.392   0.0
Ce447     Ce     0.0   0.446   0.054
V448     V     0.9846   0.4139   0.0366
V449     V     0.0154   0.4634   0.0861
Ti450     Ti     0.0   0.392   0.108
Ce451     Ce     0.946   0.5   0.054
V452     V     0.9634   0.5154   0.0861
V453     V     0.9139   0.4846   0.0366
Ti454     Ti     0.892   0.5   0.108
Ce455     Ce     0.054   0.5   0.946
V456     V     0.0861   0.5154   0.9634
V457     V     0.0366   0.4846   0.9139
Ti458     Ti     0.108   0.5   0.892
Ce459     Ce     0.946   0.554   0.0
V460     V     0.9634   0.5861   0.0154
V461     V     0.9139   0.5366   0.9846
Ti462     Ti     0.892   0.608   0.0
Ce463     Ce     0.0   0.554   0.946
V464     V     0.0154   0.5861   0.9634
V465     V     0.9846   0.5366   0.9139
Ti466     Ti     0.0   0.608   0.892
Er467     Er     0.047   0.493   0.149
Er468     Er     0.993   0.547   0.149
Er469     Er     0.851   0.797   0.243
Er470     Er     0.851   0.743   0.297
Er471     Er     0.007   0.797   0.399
Er472     Er     0.953   0.743   0.399
Er473     Er     0.047   0.757   0.101
Er474     Er     0.993   0.703   0.101
Er475     Er     0.047   0.601   0.257
Er476     Er     0.993   0.601   0.203
Er477     Er     0.007   0.899   0.297
Er478     Er     0.953   0.899   0.243
Er479     Er     0.149   0.757   0.203
Er480     Er     0.149   0.703   0.257
Ce481     Ce     0.054   0.75   0.304
V482     V     0.0861   0.7346   0.2866
V483     V     0.0366   0.7654   0.3361
Ti484     Ti     0.108   0.75   0.358
Ce485     Ce     0.0   0.696   0.304
V486     V     0.9846   0.7134   0.3361
V487     V     0.0154   0.6639   0.2866
Ti488     Ti     0.0   0.642   0.358
Ce489     Ce     0.946   0.696   0.25
V490     V     0.9634   0.6639   0.2346
V491     V     0.9139   0.7134   0.2654
Ti492     Ti     0.892   0.642   0.25
Ce493     Ce     0.946   0.75   0.196
V494     V     0.9634   0.7346   0.1639
V495     V     0.9139   0.7654   0.2134
Ti496     Ti     0.892   0.75   0.142
Ce497     Ce     0.054   0.804   0.25
V498     V     0.0861   0.7866   0.2346
V499     V     0.0366   0.8361   0.2654
Ti500     Ti     0.108   0.858   0.25
Ce501     Ce     0.0   0.804   0.196
V502     V     0.9846   0.8361   0.2134
V503     V     0.0154   0.7866   0.1639
Ti504     Ti     0.0   0.858   0.142
Er505     Er     0.601   0.993   0.203
Er506     Er     0.601   0.047   0.257
Er507     Er     0.797   0.851   0.243
Er508     Er     0.743   0.851   0.297
Er509     Er     0.899   0.953   0.243
Er510     Er     0.899   0.007   0.297
Er511     Er     0.797   0.007   0.399
Er512     Er     0.743   0.953   0.399
Er513     Er     0.703   0.993   0.101
Er514     Er     0.757   0.047   0.101
Er515     Er     0.703   0.149   0.257
Er516     Er     0.757   0.149   0.203
Ce517     Ce     0.696   0.946   0.25
V518     V     0.6639   0.9634   0.2346
V519     V     0.7134   0.9139   0.2654
Ti520     Ti     0.642   0.892   0.25
Ce521     Ce     0.75   0.946   0.196
V522     V     0.7346   0.9634   0.1639
V523     V     0.7654   0.9139   0.2134
Ti524     Ti     0.75   0.892   0.142
Ce525     Ce     0.804   0.054   0.25
V526     V     0.8361   0.0366   0.2654
V527     V     0.7866   0.0861   0.2346
Ti528     Ti     0.858   0.108   0.25
Ce529     Ce     0.804   0.0   0.196
V530     V     0.7866   0.0154   0.1639
V531     V     0.8361   0.9846   0.2134
Ti532     Ti     0.858   0.0   0.142
Ce533     Ce     0.696   0.0   0.304
V534     V     0.6639   0.0154   0.2866
V535     V     0.7134   0.9846   0.3361
Ti536     Ti     0.642   0.0   0.358
Ce537     Ce     0.75   0.054   0.304
V538     V     0.7654   0.0366   0.3361
V539     V     0.7346   0.0861   0.2866
Ti540     Ti     0.75   0.108   0.358
Er541     Er     0.203   0.649   0.257
Er542     Er     0.257   0.649   0.203
Er543     Er     0.101   0.493   0.203
Er544     Er     0.101   0.547   0.257
Er545     Er     0.399   0.453   0.243
Er546     Er     0.399   0.507   0.297
Er547     Er     0.243   0.453   0.399
Er548     Er     0.297   0.507   0.399
Er549     Er     0.243   0.351   0.297
Er550     Er     0.297   0.351   0.243
Er551     Er     0.203   0.493   0.101
Er552     Er     0.257   0.547   0.101
Ce553     Ce     0.25   0.446   0.196
V554     V     0.2654   0.4139   0.2134
V555     V     0.2346   0.4634   0.1639
Ti556     Ti     0.25   0.392   0.142
Ce557     Ce     0.196   0.5   0.304
V558     V     0.2134   0.4846   0.3361
V559     V     0.1639   0.5154   0.2866
Ti560     Ti     0.142   0.5   0.358
Ce561     Ce     0.196   0.446   0.25
V562     V     0.2134   0.4139   0.2654
V563     V     0.1639   0.4634   0.2346
Ti564     Ti     0.142   0.392   0.25
Ce565     Ce     0.304   0.5   0.196
V566     V     0.2866   0.5154   0.1639
V567     V     0.3361   0.4846   0.2134
Ti568     Ti     0.358   0.5   0.142
Ce569     Ce     0.304   0.554   0.25
V570     V     0.2866   0.5861   0.2346
V571     V     0.3361   0.5366   0.2654
Ti572     Ti     0.358   0.608   0.25
Ce573     Ce     0.25   0.554   0.304
V574     V     0.2654   0.5366   0.3361
V575     V     0.2346   0.5861   0.2866
Ti576     Ti     0.25   0.608   0.358
loop_
_geom_bond_atom_site_label_1
_geom_bond_atom_site_label_2
_geom_bond_distance
_geom_bond_site_symmetry_2
_ccdc_geom_bond_type
Er1     Er2    10.0   .     S
Er1     V19    10.007   .     S
Er1     Er255    10.011   .     S
Er2     V15    10.007   .     S
Er2     Er185    10.011   .     S
Er3     Er4    10.0   .     S
Er3     V23    10.007   .     S
Er3     Er187    10.011   .     S
Er4     V27    10.007   .     S
Er4     Er225    10.011   .     S
Er5     Er6    10.0   .     S
Er5     V35    10.007   .     S
Er5     Er221    10.011   .     S
Er6     V31    10.007   .     S
Er6     Er259    10.011   .     S
Er7     Er8    10.0   .     S
Er7     V18    10.007   .     S
Er7     Er80    10.011   .     S
Er8     V30    10.007   .     S
Er8     Er548    10.011   .     S
Er9     Er10    10.0   .     S
Er9     V14    10.007   .     S
Er9     Er84    10.011   .     S
Er10     V22    10.007   .     S
Er10     Er44    10.011   .     S
Er11     Er12    10.0   .     S
Er11     V34    10.007   .     S
Er11     Er546    10.011   .     S
Er12     V26    10.007   .     S
Er12     Er48    10.011   .     S
Ce13     Ti16    10.001   .     S
Ce13     Ce17    10.001   .     S
Ce13     Ce21    10.001   .     S
V14     V15    10.01   .     S
V14     Ti16    9.981   .     S
V15     Ti16    9.981   .     S
Ce17     Ti20    10.001   .     S
Ce17     Ce29    10.001   .     S
V18     V19    10.01   .     S
V18     Ti20    9.981   .     S
V19     Ti20    9.981   .     S
Ce21     Ti24    10.001   .     S
Ce21     Ce25    10.001   .     S
V22     V23    10.01   .     S
V22     Ti24    9.981   .     S
V23     Ti24    9.981   .     S
Ce25     Ti28    10.001   .     S
Ce25     Ce33    10.001   .     S
V26     V27    10.01   .     S
V26     Ti28    9.981   .     S
V27     Ti28    9.981   .     S
Ce29     Ti32    10.001   .     S
Ce29     Ce33    10.001   .     S
V30     V31    10.01   .     S
V30     Ti32    9.981   .     S
V31     Ti32    9.981   .     S
Ce33     Ti36    10.001   .     S
V34     V35    10.01   .     S
V34     Ti36    9.981   .     S
V35     Ti36    9.981   .     S
Er37     Er38    10.0   .     S
Er37     V55    10.007   .     S
Er37     Er153    10.011   .     S
Er38     V50    10.007   .     S
Er38     Er515    10.011   .     S
Er39     Er40    10.0   .     S
Er39     V71    10.007   .     S
Er39     Er550    10.011   .     S
Er40     V58    10.007   .     S
Er40     Er75    10.011   .     S
Er41     Er42    10.0   .     S
Er41     V62    10.007   .     S
Er41     Er506    10.011   .     S
Er42     V59    10.007   .     S
Er42     Er297    10.011   .     S
Er43     Er44    10.0   .     S
Er43     V63    10.007   .     S
Er43     Er83    10.011   .     S
Er44     V51    10.007   .     S
Er45     Er46    10.0   .     S
Er45     V70    10.007   .     S
Er45     Er295    10.011   .     S
Er46     V66    10.007   .     S
Er46     Er149    10.011   .     S
Er47     Er48    10.0   .     S
Er47     V67    10.007   .     S
Er47     Er545    10.011   .     S
Er48     V54    10.007   .     S
Ce49     Ti52    10.001   .     S
Ce49     Ce53    10.001   .     S
Ce49     Ce61    10.001   .     S
V50     V51    10.01   .     S
V50     Ti52    9.981   .     S
V51     Ti52    9.981   .     S
Ce53     Ti56    10.001   .     S
Ce53     Ce65    10.001   .     S
V54     V55    10.01   .     S
V54     Ti56    9.981   .     S
V55     Ti56    9.981   .     S
Ce57     Ti60    10.001   .     S
Ce57     Ce69    10.001   .     S
Ce57     Ce61    10.001   .     S
V58     V59    10.01   .     S
V58     Ti60    9.981   .     S
V59     Ti60    9.981   .     S
Ce61     Ti64    10.001   .     S
V62     V63    10.01   .     S
V62     Ti64    9.981   .     S
V63     Ti64    9.981   .     S
Ce65     Ti68    10.001   .     S
Ce65     Ce69    10.001   .     S
V66     V67    10.01   .     S
V66     Ti68    9.981   .     S
V67     Ti68    9.981   .     S
Ce69     Ti72    10.001   .     S
V70     V71    10.01   .     S
V70     Ti72    9.981   .     S
V71     Ti72    9.981   .     S
Er73     Er74    10.0   .     S
Er73     V103    10.007   .     S
Er73     Er372    10.011   .     S
Er74     V106    10.007   .     S
Er74     Er120    10.011   .     S
Er75     Er76    10.0   .     S
Er75     V90    10.007   .     S
Er76     V94    10.007   .     S
Er76     Er549    10.011   .     S
Er77     Er78    10.0   .     S
Er77     V91    10.007   .     S
Er77     Er403    10.011   .     S
Er78     V86    10.007   .     S
Er78     Er367    10.011   .     S
Er79     Er80    10.0   .     S
Er79     V98    10.007   .     S
Er79     Er547    10.011   .     S
Er80     V107    10.007   .     S
Er81     Er82    10.0   .     S
Er81     V95    10.007   .     S
Er81     Er406    10.011   .     S
Er82     V99    10.007   .     S
Er82     Er114    10.011   .     S
Er83     Er84    10.0   .     S
Er83     V87    10.007   .     S
Er84     V102    10.007   .     S
Ce85     Ti88    10.001   .     S
Ce85     Ce89    10.001   .     S
Ce85     Ce101    10.001   .     S
V86     V87    10.01   .     S
V86     Ti88    9.981   .     S
V87     Ti88    9.981   .     S
Ce89     Ti92    10.001   .     S
Ce89     Ce93    10.001   .     S
V90     V91    10.01   .     S
V90     Ti92    9.981   .     S
V91     Ti92    9.981   .     S
Ce93     Ti96    10.001   .     S
Ce93     Ce97    10.001   .     S
V94     V95    10.01   .     S
V94     Ti96    9.981   .     S
V95     Ti96    9.981   .     S
Ce97     Ti100    10.001   .     S
Ce97     Ce105    10.001   .     S
V98     V99    10.01   .     S
V98     Ti100    9.981   .     S
V99     Ti100    9.981   .     S
Ce101     Ti104    10.001   .     S
Ce101     Ce105    10.001   .     S
V102     V103    10.01   .     S
V102     Ti104    9.981   .     S
V103     Ti104    9.981   .     S
Ce105     Ti108    10.001   .     S
V106     V107    10.01   .     S
V106     Ti108    9.981   .     S
V107     Ti108    9.981   .     S
Er109     Er110    10.0   .     S
Er109     V127    10.007   .     S
Er109     Er145    10.011   .     S
Er110     V123    10.007   .     S
Er110     Er189    10.011   .     S
Er111     Er112    10.0   1_655     S
Er111     V130    10.007   .     S
Er111     Er180    10.011   .     S
Er112     Er111    10.0   1_455     S
Er112     V134    10.007   .     S
Er112     Er439    10.011   .     S
Er113     Er114    10.0   1_655     S
Er113     V122    10.007   .     S
Er113     Er405    10.011   .     S
Er114     Er113    10.0   1_455     S
Er114     V139    10.007   .     S
Er115     Er116    10.0   1_655     S
Er115     V126    10.007   .     S
Er115     Er398    10.011   .     S
Er116     Er115    10.0   1_455     S
Er116     V131    10.007   .     S
Er116     Er364    10.011   .     S
Er117     Er118    10.0   1_455     S
Er117     V142    10.007   .     S
Er117     Er433    10.011   .     S
Er118     Er117    10.0   1_655     S
Er118     V138    10.007   .     S
Er118     Er183    10.011   .     S
Er119     Er120    10.0   .     S
Er119     V135    10.007   .     S
Er119     Er371    10.011   .     S
Er120     V143    10.007   .     S
Ce121     Ti124    10.001   .     S
Ce121     Ce125    10.001   .     S
Ce121     Ce137    10.001   1_655     S
V122     V123    10.01   .     S
V122     Ti124    9.981   .     S
V123     Ti124    9.981   .     S
Ce125     Ti128    10.001   .     S
Ce125     Ce129    10.001   1_655     S
V126     V127    10.01   .     S
V126     Ti128    9.981   .     S
V127     Ti128    9.981   .     S
Ce129     Ce125    10.001   1_455     S
Ce129     Ti132    10.001   .     S
Ce129     Ce133    10.001   .     S
V130     V131    10.01   1_655     S
V130     Ti132    9.981   1_655     S
V131     V130    10.01   1_455     S
V131     Ti132    9.981   .     S
Ti132     V130    9.981   1_455     S
Ce133     Ti136    10.001   .     S
Ce133     Ce141    10.001   .     S
V134     V135    10.01   .     S
V134     Ti136    9.981   .     S
V135     Ti136    9.981   .     S
Ce137     Ti140    10.001   .     S
Ce137     Ce121    10.001   1_455     S
Ce137     Ce141    10.001   .     S
V138     V139    10.01   1_655     S
V138     Ti140    9.981   1_655     S
V139     V138    10.01   1_455     S
V139     Ti140    9.981   .     S
Ti140     V138    9.981   1_455     S
Ce141     Ti144    10.001   .     S
V142     V143    10.01   .     S
V142     Ti144    9.981   .     S
V143     Ti144    9.981   .     S
Er145     Er146    10.0   .     S
Er145     V161    10.007   .     S
Er146     V157    10.007   .     S
Er146     Er190    10.011   .     S
Er147     Er148    10.0   1_556     S
Er147     V160    10.007   .     S
Er147     Er289    10.011   .     S
Er148     Er147    10.0   1_554     S
Er148     V177    10.007   .     S
Er148     Er514    10.011   .     S
Er149     Er150    10.0   1_554     S
Er149     V165    10.007   .     S
Er150     Er149    10.0   1_556     S
Er150     V156    10.007   .     S
Er150     Er296    10.011   .     S
Er151     Er152    10.0   1_554     S
Er151     V168    10.007   .     S
Er151     Er435    10.011   .     S
Er152     Er151    10.0   1_556     S
Er152     V164    10.007   .     S
Er152     Er191    10.011   .     S
Er153     Er154    10.0   .     S
Er153     V169    10.007   .     S
Er154     V172    10.007   .     S
Er154     Er516    10.011   .     S
Ce155     Ti158    10.001   .     S
Ce155     Ce159    10.001   .     S
Ce155     Ce163    10.001   1_556     S
V156     V157    10.01   .     S
V156     Ti158    9.981   .     S
V157     Ti158    9.981   .     S
Ce159     Ti162    10.001   .     S
Ce159     Ce175    10.001   1_556     S
V160     V161    10.01   .     S
V160     Ti162    9.981   .     S
V161     Ti162    9.981   .     S
Ce163     Ti166    10.001   .     S
Ce163     Ce155    10.001   1_554     S
Ce163     Ce167    10.001   .     S
V164     V165    10.01   1_556     S
V164     Ti166    9.981   1_556     S
V165     V164    10.01   1_554     S
V165     Ti166    9.981   .     S
Ti166     V164    9.981   1_554     S
Ce167     Ti170    10.001   .     S
Ce167     Ce171    10.001   .     S
V168     V169    10.01   .     S
V168     Ti170    9.981   .     S
V169     Ti170    9.981   .     S
Ce171     Ti174    10.001   .     S
Ce171     Ce175    10.001   .     S
V172     V173    10.01   .     S
V172     Ti174    9.981   .     S
V173     Er179    10.007   .     S
V173     Ti174    9.981   .     S
Ce175     Ce159    10.001   1_554     S
Ce175     Ti178    10.001   .     S
V176     V177    10.01   1_556     S
V176     Er180    10.007   .     S
V176     Ti178    9.981   1_556     S
V177     V176    10.01   1_554     S
V177     Ti178    9.981   .     S
Ti178     V176    9.981   1_554     S
Er179     Er180    10.0   1_554     S
Er179     Er440    10.011   .     S
Er180     Er179    10.0   1_556     S
Er181     Er182    10.0   .     S
Er181     V203    10.007   .     S
Er181     Er252    10.011   .     S
Er182     V206    10.007   .     S
Er182     Er253    10.011   .     S
Er183     Er184    10.0   .     S
Er183     V195    10.007   .     S
Er184     V202    10.007   .     S
Er184     Er434    10.011   .     S
Er185     Er186    10.0   .     S
Er185     V211    10.007   .     S
Er186     V198    10.007   .     S
Er186     Er256    10.011   .     S
Er187     Er188    10.0   .     S
Er187     V214    10.007   .     S
Er188     V194    10.007   .     S
Er188     Er226    10.011   .     S
Er189     Er190    10.0   .     S
Er189     V215    10.007   .     S
Er190     V210    10.007   .     S
Er191     Er192    10.0   .     S
Er191     V199    10.007   .     S
Er192     V207    10.007   .     S
Er192     Er436    10.011   .     S
Ce193     Ti196    10.001   .     S
Ce193     Ce201    10.001   .     S
Ce193     Ce213    10.001   .     S
V194     V195    10.01   .     S
V194     Ti196    9.981   .     S
V195     Ti196    9.981   .     S
Ce197     Ti200    10.001   .     S
Ce197     Ce205    10.001   .     S
Ce197     Ce209    10.001   .     S
V198     V199    10.01   .     S
V198     Ti200    9.981   .     S
V199     Ti200    9.981   .     S
Ce201     Ti204    10.001   .     S
Ce201     Ce205    10.001   .     S
V202     V203    10.01   .     S
V202     Ti204    9.981   .     S
V203     Ti204    9.981   .     S
Ce205     Ti208    10.001   .     S
V206     V207    10.01   .     S
V206     Ti208    9.981   .     S
V207     Ti208    9.981   .     S
Ce209     Ti212    10.001   .     S
Ce209     Ce213    10.001   .     S
V210     V211    10.01   .     S
V210     Ti212    9.981   .     S
V211     Ti212    9.981   .     S
Ce213     Ti216    10.001   .     S
V214     V215    10.01   .     S
V214     Ti216    9.981   .     S
V215     Ti216    9.981   .     S
Er217     Er218    10.0   .     S
Er217     V236    10.007   .     S
Er217     Er400    10.011   .     S
Er218     V228    10.007   .     S
Er218     Er472    10.011   .     S
Er219     Er220    10.0   .     S
Er219     V245    10.007   .     S
Er219     Er508    10.011   .     S
Er220     V248    10.007   .     S
Er220     Er470    10.011   .     S
Er221     Er222    10.0   .     S
Er221     V244    10.007   .     S
Er222     V233    10.007   .     S
Er222     Er260    10.011   .     S
Er223     Er224    10.0   .     S
Er223     V240    10.007   .     S
Er223     Er402    10.011   .     S
Er224     V232    10.007   .     S
Er224     Er512    10.011   .     S
Er225     Er226    10.0   .     S
Er225     V249    10.007   .     S
Er226     V229    10.007   .     S
Ce227     Ti230    10.001   .     S
Ce227     Ce235    10.001   .     S
Ce227     Ce247    10.001   .     S
V228     V229    10.01   .     S
V228     Ti230    9.981   .     S
V229     Ti230    9.981   .     S
Ce231     Ti234    10.001   .     S
Ce231     Ce239    10.001   .     S
Ce231     Ce243    10.001   .     S
V232     V233    10.01   .     S
V232     Ti234    9.981   .     S
V233     Ti234    9.981   .     S
Ce235     Ti238    10.001   .     S
Ce235     Ce239    10.001   .     S
V236     V237    10.01   .     S
V236     Ti238    9.981   .     S
V237     Er252    10.007   .     S
V237     Ti238    9.981   .     S
Ce239     Ti242    10.001   .     S
V240     V241    10.01   .     S
V240     Ti242    9.981   .     S
V241     Er251    10.007   .     S
V241     Ti242    9.981   .     S
Ce243     Ti246    10.001   .     S
Ce243     Ce247    10.001   .     S
V244     V245    10.01   .     S
V244     Ti246    9.981   .     S
V245     Ti246    9.981   .     S
Ce247     Ti250    10.001   .     S
V248     V249    10.01   .     S
V248     Ti250    9.981   .     S
V249     Ti250    9.981   .     S
Er251     Er252    10.0   .     S
Er251     Er254    10.011   .     S
Er253     Er254    10.0   .     S
Er253     V275    10.007   .     S
Er254     V279    10.007   .     S
Er255     Er256    10.0   .     S
Er255     V286    10.007   .     S
Er256     V267    10.007   .     S
Er257     Er258    10.0   .     S
Er257     V287    10.007   .     S
Er257     Er328    10.011   .     S
Er258     V282    10.007   .     S
Er258     Er362    10.011   .     S
Er259     Er260    10.0   .     S
Er259     V283    10.007   .     S
Er260     V271    10.007   .     S
Er261     Er262    10.0   .     S
Er261     V278    10.007   .     S
Er261     Er292    10.011   .     S
Er262     V270    10.007   .     S
Er262     Er365    10.011   .     S
Er263     Er264    10.0   .     S
Er263     V274    10.007   .     S
Er263     Er294    10.011   .     S
Er264     V266    10.007   .     S
Er264     Er334    10.011   .     S
Ce265     Ti268    10.001   .     S
Ce265     Ce273    10.001   .     S
Ce265     Ce285    10.001   .     S
V266     V267    10.01   .     S
V266     Ti268    9.981   .     S
V267     Ti268    9.981   .     S
Ce269     Ti272    10.001   .     S
Ce269     Ce277    10.001   .     S
Ce269     Ce281    10.001   .     S
V270     V271    10.01   .     S
V270     Ti272    9.981   .     S
V271     Ti272    9.981   .     S
Ce273     Ti276    10.001   .     S
Ce273     Ce277    10.001   .     S
V274     V275    10.01   .     S
V274     Ti276    9.981   .     S
V275     Ti276    9.981   .     S
Ce277     Ti280    10.001   .     S
V278     V279    10.01   .     S
V278     Ti280    9.981   .     S
V279     Ti280    9.981   .     S
Ce281     Ti284    10.001   .     S
Ce281     Ce285    10.001   .     S
V282     V283    10.01   .     S
V282     Ti284    9.981   .     S
V283     Ti284    9.981   .     S
Ce285     Ti288    10.001   .     S
V286     V287    10.01   .     S
V286     Ti288    9.981   .     S
V287     Ti288    9.981   .     S
Er289     Er290    10.0   1_546     S
Er289     V316    10.007   .     S
Er290     Er289    10.0   1_564     S
Er290     V320    10.007   .     S
Er290     Er513    10.011   .     S
Er291     Er292    10.0   1_545     S
Er291     V313    10.007   .     S
Er291     Er366    10.011   .     S
Er292     Er291    10.0   1_565     S
Er292     V317    10.007   .     S
Er293     Er294    10.0   1_554     S
Er293     V309    10.007   .     S
Er293     Er333    10.011   .     S
Er294     Er293    10.0   1_556     S
Er294     V321    10.007   .     S
Er295     Er296    10.0   1_554     S
Er295     V305    10.007   .     S
Er296     Er295    10.0   1_556     S
Er296     V312    10.007   .     S
Er297     Er298    10.0   1_545     S
Er297     V301    10.007   .     S
Er298     Er297    10.0   1_565     S
Er298     V308    10.007   .     S
Er298     Er505    10.011   .     S
Ce299     Ti302    10.001   .     S
Ce299     Ce307    10.001   1_545     S
Ce299     Ce303    10.001   .     S
V300     V301    10.01   1_565     S
V300     Er323    10.007   .     S
V300     Ti302    9.981   1_565     S
V301     V300    10.01   1_545     S
V301     Ti302    9.981   .     S
Ti302     V300    9.981   1_545     S
Ce303     Ti306    10.001   .     S
Ce303     Ce311    10.001   1_554     S
V304     V305    10.01   1_556     S
V304     Er324    10.007   .     S
V304     Ti306    9.981   1_556     S
V305     V304    10.01   1_554     S
V305     Ti306    9.981   .     S
Ti306     V304    9.981   1_554     S
Ce307     Ce299    10.001   1_565     S
Ce307     Ti310    10.001   .     S
Ce307     Ce319    10.001   .     S
V308     V309    10.01   .     S
V308     Ti310    9.981   .     S
V309     Ti310    9.981   .     S
Ce311     Ce303    10.001   1_556     S
Ce311     Ti314    10.001   .     S
Ce311     Ce315    10.001   .     S
V312     V313    10.01   .     S
V312     Ti314    9.981   .     S
V313     Ti314    9.981   .     S
Ce315     Ti318    10.001   .     S
Ce315     Ce319    10.001   1_546     S
V316     V317    10.01   1_545     S
V316     Ti318    9.981   .     S
V317     V316    10.01   1_565     S
V317     Ti318    9.981   1_565     S
Ti318     V317    9.981   1_545     S
Ce319     Ti322    10.001   .     S
Ce319     Ce315    10.001   1_564     S
V320     V321    10.01   1_554     S
V320     Ti322    9.981   .     S
V321     V320    10.01   1_556     S
V321     Ti322    9.981   1_556     S
Ti322     V321    9.981   1_554     S
Er323     Er324    10.0   1_564     S
Er323     Er330    10.011   .     S
Er324     Er323    10.0   1_546     S
Er324     Er369    10.011   .     S
Er325     Er326    10.0   1_556     S
Er325     V346    10.007   .     S
Er325     Er442    10.011   .     S
Er326     Er325    10.0   1_554     S
Er326     V342    10.007   .     S
Er326     Er552    10.011   .     S
Er327     Er328    10.0   .     S
Er327     V351    10.007   .     S
Er327     Er361    10.011   .     S
Er328     V347    10.007   .     S
Er329     Er330    10.0   1_556     S
Er329     V354    10.007   .     S
Er329     Er370    10.011   .     S
Er330     Er329    10.0   1_554     S
Er330     V358    10.007   .     S
Er331     Er332    10.0   1_556     S
Er331     V350    10.007   .     S
Er331     Er437    10.011   .     S
Er332     Er331    10.0   1_554     S
Er332     V355    10.007   .     S
Er332     Er473    10.011   .     S
Er333     Er334    10.0   1_554     S
Er333     V339    10.007   .     S
Er334     Er333    10.0   1_556     S
Er334     V343    10.007   .     S
Er335     Er336    10.0   .     S
Er335     V338    10.007   .     S
Er335     Er542    10.011   .     S
Er336     V359    10.007   .     S
Er336     Er479    10.011   .     S
Ce337     Ti340    10.001   .     S
Ce337     Ce357    10.001   .     S
Ce337     Ce341    10.001   .     S
V338     V339    10.01   .     S
V338     Ti340    9.981   .     S
V339     Ti340    9.981   .     S
Ce341     Ti344    10.001   .     S
Ce341     Ce345    10.001   1_554     S
V342     V343    10.01   1_554     S
V342     Ti344    9.981   .     S
V343     V342    10.01   1_556     S
V343     Ti344    9.981   1_556     S
Ti344     V343    9.981   1_554     S
Ce345     Ce341    10.001   1_556     S
Ce345     Ti348    10.001   .     S
Ce345     Ce349    10.001   .     S
V346     V347    10.01   .     S
V346     Ti348    9.981   .     S
V347     Ti348    9.981   .     S
Ce349     Ti352    10.001   .     S
Ce349     Ce353    10.001   1_556     S
V350     V351    10.01   .     S
V350     Ti352    9.981   .     S
V351     Ti352    9.981   .     S
Ce353     Ce349    10.001   1_554     S
Ce353     Ti356    10.001   .     S
Ce353     Ce357    10.001   .     S
V354     V355    10.01   1_556     S
V354     Ti356    9.981   1_556     S
V355     V354    10.01   1_554     S
V355     Ti356    9.981   .     S
Ti356     V354    9.981   1_554     S
Ce357     Ti360    10.001   .     S
V358     V359    10.01   .     S
V358     Ti360    9.981   .     S
V359     Ti360    9.981   .     S
Er361     Er362    10.0   .     S
Er361     V383    10.007   .     S
Er362     V379    10.007   .     S
Er363     Er364    10.0   1_565     S
Er363     V382    10.007   .     S
Er363     Er397    10.011   .     S
Er364     Er363    10.0   1_545     S
Er364     V387    10.007   .     S
Er365     Er366    10.0   1_565     S
Er365     V375    10.007   .     S
Er366     Er365    10.0   1_545     S
Er366     V395    10.007   .     S
Er367     Er368    10.0   1_545     S
Er367     V374    10.007   .     S
Er368     Er367    10.0   1_565     S
Er368     V378    10.007   .     S
Er368     Er404    10.011   .     S
Er369     Er370    10.0   1_545     S
Er369     V391    10.007   .     S
Er370     Er369    10.0   1_565     S
Er370     V386    10.007   .     S
Er371     Er372    10.0   .     S
Er371     V390    10.007   .     S
Er372     V394    10.007   .     S
Ce373     Ti376    10.001   .     S
Ce373     Ce393    10.001   .     S
Ce373     Ce377    10.001   1_545     S
V374     V375    10.01   1_545     S
V374     Ti376    9.981   .     S
V375     V374    10.01   1_565     S
V375     Ti376    9.981   1_565     S
Ti376     V375    9.981   1_545     S
Ce377     Ce373    10.001   1_565     S
Ce377     Ti380    10.001   .     S
Ce377     Ce381    10.001   .     S
V378     V379    10.01   .     S
V378     Ti380    9.981   .     S
V379     Ti380    9.981   .     S
Ce381     Ti384    10.001   .     S
Ce381     Ce385    10.001   1_565     S
V382     V383    10.01   .     S
V382     Ti384    9.981   .     S
V383     Ti384    9.981   .     S
Ce385     Ce381    10.001   1_545     S
Ce385     Ti388    10.001   .     S
Ce385     Ce389    10.001   .     S
V386     V387    10.01   1_565     S
V386     Ti388    9.981   1_565     S
V387     V386    10.01   1_545     S
V387     Ti388    9.981   .     S
Ti388     V386    9.981   1_545     S
Ce389     Ti392    10.001   .     S
Ce389     Ce393    10.001   .     S
V390     V391    10.01   .     S
V390     Ti392    9.981   .     S
V391     Ti392    9.981   .     S
Ce393     Ti396    10.001   .     S
V394     V395    10.01   .     S
V394     Ti396    9.981   .     S
V395     Ti396    9.981   .     S
Er397     Er398    10.0   1_465     S
Er397     V424    10.007   .     S
Er398     Er397    10.0   1_645     S
Er398     V428    10.007   .     S
Er399     Er400    10.0   1_455     S
Er399     V417    10.007   .     S
Er399     Er471    10.011   .     S
Er400     Er399    10.0   1_655     S
Er400     V425    10.007   .     S
Er401     Er402    10.0   1_545     S
Er401     V421    10.007   .     S
Er401     Er511    10.011   .     S
Er402     Er401    10.0   1_565     S
Er402     V429    10.007   .     S
Er403     Er404    10.0   1_545     S
Er403     V409    10.007   .     S
Er404     Er403    10.0   1_565     S
Er404     V416    10.007   .     S
Er405     Er406    10.0   1_655     S
Er405     V420    10.007   .     S
Er406     Er405    10.0   1_455     S
Er406     V413    10.007   .     S
Ce407     Ti410    10.001   .     S
Ce407     Ce415    10.001   1_545     S
Ce407     Ce411    10.001   .     S
V408     V409    10.01   1_565     S
V408     Er432    10.007   .     S
V408     Ti410    9.981   1_565     S
V409     V408    10.01   1_545     S
V409     Ti410    9.981   .     S
Ti410     V408    9.981   1_545     S
Ce411     Ti414    10.001   .     S
Ce411     Ce419    10.001   1_455     S
V412     V413    10.01   1_655     S
V412     Er431    10.007   .     S
V412     Ti414    9.981   1_655     S
V413     V412    10.01   1_455     S
V413     Ti414    9.981   .     S
Ti414     V412    9.981   1_455     S
Ce415     Ce407    10.001   1_565     S
Ce415     Ti418    10.001   .     S
Ce415     Ce423    10.001   .     S
V416     V417    10.01   .     S
V416     Ti418    9.981   .     S
V417     Ti418    9.981   .     S
Ce419     Ce411    10.001   1_655     S
Ce419     Ti422    10.001   .     S
Ce419     Ce427    10.001   .     S
V420     V421    10.01   .     S
V420     Ti422    9.981   .     S
V421     Ti422    9.981   .     S
Ce423     Ti426    10.001   .     S
Ce423     Ce427    10.001   1_465     S
V424     V425    10.01   1_455     S
V424     Ti426    9.981   .     S
V425     V424    10.01   1_655     S
V425     Ti426    9.981   1_655     S
Ti426     V425    9.981   1_455     S
Ce427     Ti430    10.001   .     S
Ce427     Ce423    10.001   1_645     S
V428     V429    10.01   1_545     S
V428     Ti430    9.981   .     S
V429     V428    10.01   1_565     S
V429     Ti430    9.981   1_565     S
Ti430     V429    9.981   1_545     S
Er431     Er432    10.0   1_645     S
Er431     Er510    10.011   .     S
Er432     Er431    10.0   1_465     S
Er432     Er477    10.011   .     S
Er433     Er434    10.0   1_455     S
Er433     V457    10.007   .     S
Er434     Er433    10.0   1_655     S
Er434     V465    10.007   .     S
Er435     Er436    10.0   1_554     S
Er435     V453    10.007   .     S
Er436     Er435    10.0   1_556     S
Er436     V461    10.007   .     S
Er437     Er438    10.0   1_456     S
Er437     V464    10.007   .     S
Er438     Er437    10.0   1_654     S
Er438     V460    10.007   .     S
Er438     Er474    10.011   .     S
Er439     Er440    10.0   1_456     S
Er439     V444    10.007   .     S
Er440     Er439    10.0   1_654     S
Er440     V448    10.007   .     S
Er441     Er442    10.0   1_554     S
Er441     V445    10.007   .     S
Er441     Er551    10.011   .     S
Er442     Er441    10.0   1_556     S
Er442     V456    10.007   .     S
Ce443     Ti446    10.001   .     S
Ce443     Ce455    10.001   1_554     S
Ce443     Ce447    10.001   .     S
V444     V445    10.01   1_556     S
V444     Ti446    9.981   1_556     S
V445     V444    10.01   1_554     S
V445     Ti446    9.981   .     S
Ti446     V444    9.981   1_554     S
Ce447     Ti450    10.001   .     S
Ce447     Ce451    10.001   1_455     S
V448     V449    10.01   1_655     S
V448     Ti450    9.981   1_655     S
V449     V448    10.01   1_455     S
V449     Er467    10.007   .     S
V449     Ti450    9.981   .     S
Ti450     V448    9.981   1_455     S
Ce451     Ce447    10.001   1_655     S
Ce451     Ti454    10.001   .     S
Ce451     Ce459    10.001   .     S
V452     V453    10.01   .     S
V452     Er468    10.007   .     S
V452     Ti454    9.981   .     S
V453     Ti454    9.981   .     S
Ce455     Ce443    10.001   1_556     S
Ce455     Ti458    10.001   .     S
Ce455     Ce463    10.001   .     S
V456     V457    10.01   .     S
V456     Ti458    9.981   .     S
V457     Ti458    9.981   .     S
Ce459     Ti462    10.001   .     S
Ce459     Ce463    10.001   1_654     S
V460     V461    10.01   1_554     S
V460     Ti462    9.981   .     S
V461     V460    10.01   1_556     S
V461     Ti462    9.981   1_556     S
Ti462     V461    9.981   1_554     S
Ce463     Ti466    10.001   .     S
Ce463     Ce459    10.001   1_456     S
V464     V465    10.01   1_455     S
V464     Ti466    9.981   .     S
V465     V464    10.01   1_655     S
V465     Ti466    9.981   1_655     S
Ti466     V465    9.981   1_455     S
Er467     Er468    10.0   1_455     S
Er467     Er543    10.011   .     S
Er468     Er467    10.0   1_655     S
Er468     Er476    10.011   .     S
Er469     Er470    10.0   .     S
Er469     V495    10.007   .     S
Er469     Er507    10.011   .     S
Er470     V491    10.007   .     S
Er471     Er472    10.0   1_455     S
Er471     V483    10.007   .     S
Er472     Er471    10.0   1_655     S
Er472     V486    10.007   .     S
Er473     Er474    10.0   1_455     S
Er473     V503    10.007   .     S
Er474     Er473    10.0   1_655     S
Er474     V494    10.007   .     S
Er475     Er476    10.0   1_455     S
Er475     V487    10.007   .     S
Er475     Er544    10.011   .     S
Er476     Er475    10.0   1_655     S
Er476     V490    10.007   .     S
Er477     Er478    10.0   1_455     S
Er477     V499    10.007   .     S
Er478     Er477    10.0   1_655     S
Er478     V502    10.007   .     S
Er478     Er509    10.011   .     S
Er479     Er480    10.0   .     S
Er479     V498    10.007   .     S
Er480     V482    10.007   .     S
Er480     Er541    10.011   .     S
Ce481     Ti484    10.001   .     S
Ce481     Ce497    10.001   .     S
Ce481     Ce485    10.001   .     S
V482     V483    10.01   .     S
V482     Ti484    9.981   .     S
V483     Ti484    9.981   .     S
Ce485     Ti488    10.001   .     S
Ce485     Ce489    10.001   1_455     S
V486     V487    10.01   1_655     S
V486     Ti488    9.981   1_655     S
V487     V486    10.01   1_455     S
V487     Ti488    9.981   .     S
Ti488     V486    9.981   1_455     S
Ce489     Ce485    10.001   1_655     S
Ce489     Ti492    10.001   .     S
Ce489     Ce493    10.001   .     S
V490     V491    10.01   .     S
V490     Ti492    9.981   .     S
V491     Ti492    9.981   .     S
Ce493     Ti496    10.001   .     S
Ce493     Ce501    10.001   1_655     S
V494     V495    10.01   .     S
V494     Ti496    9.981   .     S
V495     Ti496    9.981   .     S
Ce497     Ti500    10.001   .     S
Ce497     Ce501    10.001   .     S
V498     V499    10.01   .     S
V498     Ti500    9.981   .     S
V499     Ti500    9.981   .     S
Ce501     Ce493    10.001   1_455     S
Ce501     Ti504    10.001   .     S
V502     V503    10.01   1_655     S
V502     Ti504    9.981   1_655     S
V503     V502    10.01   1_455     S
V503     Ti504    9.981   .     S
Ti504     V502    9.981   1_455     S
Er505     Er506    10.0   1_565     S
Er505     V518    10.007   .     S
Er506     Er505    10.0   1_545     S
Er506     V534    10.007   .     S
Er507     Er508    10.0   .     S
Er507     V523    10.007   .     S
Er508     V519    10.007   .     S
Er509     Er510    10.0   1_565     S
Er509     V531    10.007   .     S
Er510     Er509    10.0   1_545     S
Er510     V526    10.007   .     S
Er511     Er512    10.0   1_545     S
Er511     V538    10.007   .     S
Er512     Er511    10.0   1_565     S
Er512     V535    10.007   .     S
Er513     Er514    10.0   1_565     S
Er513     V522    10.007   .     S
Er514     Er513    10.0   1_545     S
Er514     V530    10.007   .     S
Er515     Er516    10.0   .     S
Er515     V539    10.007   .     S
Er516     V527    10.007   .     S
Ce517     Ti520    10.001   .     S
Ce517     Ce521    10.001   .     S
Ce517     Ce533    10.001   1_565     S
V518     V519    10.01   .     S
V518     Ti520    9.981   .     S
V519     Ti520    9.981   .     S
Ce521     Ti524    10.001   .     S
Ce521     Ce529    10.001   1_565     S
V522     V523    10.01   .     S
V522     Ti524    9.981   .     S
V523     Ti524    9.981   .     S
Ce525     Ti528    10.001   .     S
Ce525     Ce529    10.001   .     S
Ce525     Ce537    10.001   .     S
V526     V527    10.01   .     S
V526     Ti528    9.981   .     S
V527     Ti528    9.981   .     S
Ce529     Ce521    10.001   1_545     S
Ce529     Ti532    10.001   .     S
V530     V531    10.01   1_545     S
V530     Ti532    9.981   .     S
V531     V530    10.01   1_565     S
V531     Ti532    9.981   1_565     S
Ti532     V531    9.981   1_545     S
Ce533     Ti536    10.001   .     S
Ce533     Ce517    10.001   1_545     S
Ce533     Ce537    10.001   .     S
V534     V535    10.01   1_545     S
V534     Ti536    9.981   .     S
V535     V534    10.01   1_565     S
V535     Ti536    9.981   1_565     S
Ti536     V535    9.981   1_545     S
Ce537     Ti540    10.001   .     S
V538     V539    10.01   .     S
V538     Ti540    9.981   .     S
V539     Ti540    9.981   .     S
Er541     Er542    10.0   .     S
Er541     V575    10.007   .     S
Er542     V570    10.007   .     S
Er543     Er544    10.0   .     S
Er543     V563    10.007   .     S
Er544     V559    10.007   .     S
Er545     Er546    10.0   .     S
Er545     V567    10.007   .     S
Er546     V571    10.007   .     S
Er547     Er548    10.0   .     S
Er547     V558    10.007   .     S
Er548     V574    10.007   .     S
Er549     Er550    10.0   .     S
Er549     V562    10.007   .     S
Er550     V554    10.007   .     S
Er551     Er552    10.0   .     S
Er551     V555    10.007   .     S
Er552     V566    10.007   .     S
Ce553     Ti556    10.001   .     S
Ce553     Ce565    10.001   .     S
Ce553     Ce561    10.001   .     S
V554     V555    10.01   .     S
V554     Ti556    9.981   .     S
V555     Ti556    9.981   .     S
Ce557     Ti560    10.001   .     S
Ce557     Ce573    10.001   .     S
Ce557     Ce561    10.001   .     S
V558     V559    10.01   .     S
V558     Ti560    9.981   .     S
V559     Ti560    9.981   .     S
Ce561     Ti564    10.001   .     S
V562     V563    10.01   .     S
V562     Ti564    9.981   .     S
V563     Ti564    9.981   .     S
Ce565     Ti568    10.001   .     S
Ce565     Ce569    10.001   .     S
V566     V567    10.01   .     S
V566     Ti568    9.981   .     S
V567     Ti568    9.981   .     S
Ce569     Ti572    10.001   .     S
Ce569     Ce573    10.001   .     S
V570     V571    10.01   .     S
V570     Ti572    9.981   .     S
V571     Ti572    9.981   .     S
Ce573     Ti576    10.001   .     S
V574     V575    10.01   .     S
V574     Ti576    9.981   .     S
V575     Ti576    9.981   .     S
