data_dnl
_audit_creation_date              2020-02-02
_audit_creation_method            'Pymatgen'
_symmetry_space_group_name_H-M    'P1'
_symmetry_Int_Tables_number       1
loop_
_symmetry_equiv_pos_as_xyz
  x,y,z
_cell_length_a                    47.2921
_cell_length_b                    47.2921
_cell_length_c                    47.2921
_cell_angle_alpha                 90.0
_cell_angle_beta                 90.0
_cell_angle_gamma                 90.0
loop_
_atom_site_label
_atom_site_type_symbol
_atom_site_fract_x
_atom_site_fract_y
_atom_site_fract_z
Er1     Er     0.5   0.5   0.5
Er2     Er     0.5   0.25   0.25
Ti3     Ti     0.7888   0.7888   0.7888
Ti4     Ti     0.7888   0.9612   0.9612
Ti5     Ti     0.9612   0.7888   0.9612
Ti6     Ti     0.9612   0.9612   0.7888
V7     V     0.134   0.875   0.875
V8     V     0.875   0.875   0.134
V9     V     0.875   0.875   0.616
V10     V     0.875   0.616   0.875
V11     V     0.616   0.875   0.875
V12     V     0.875   0.134   0.875
Er13     Er     0.25   0.5   0.25
Er14     Er     0.25   0.25   0.5
Er15     Er     0.5   0.75   0.75
Er16     Er     0.25   0.75   0.0
Er17     Er     0.0   0.5   0.0
Er18     Er     0.25   0.0   0.75
Er19     Er     0.75   0.75   0.5
Er20     Er     0.0   0.75   0.25
Er21     Er     0.5   0.0   0.0
Ti22     Ti     0.2888   0.7888   0.2888
V23     V     0.375   0.616   0.375
Ti24     Ti     0.4612   0.9612   0.2888
V25     V     0.634   0.875   0.375
V26     V     0.375   0.875   0.116
Ti27     Ti     0.2888   0.9612   0.4612
Ti28     Ti     0.4612   0.7888   0.4612
V29     V     0.375   0.875   0.634
V30     V     0.375   0.134   0.375
V31     V     0.116   0.875   0.375
Er32     Er     0.75   0.0   0.25
Er33     Er     0.75   0.25   0.0
Ti34     Ti     0.2888   0.2888   0.7888
Ti35     Ti     0.4612   0.2888   0.9612
Ti36     Ti     0.4612   0.4612   0.7888
Ti37     Ti     0.2888   0.4612   0.9612
V38     V     0.375   0.634   0.875
V39     V     0.634   0.375   0.875
V40     V     0.375   0.375   0.616
V41     V     0.375   0.375   0.134
V42     V     0.375   0.116   0.875
V43     V     0.116   0.375   0.875
Ti44     Ti     0.7112   0.7112   0.2112
V45     V     0.625   0.625   0.384
Ti46     Ti     0.7112   0.5388   0.0388
Ti47     Ti     0.5388   0.7112   0.0388
Ti48     Ti     0.5388   0.5388   0.2112
V49     V     0.366   0.625   0.125
V50     V     0.625   0.366   0.125
V51     V     0.625   0.625   0.866
V52     V     0.884   0.625   0.125
V53     V     0.625   0.884   0.125
Er54     Er     0.75   0.5   0.75
Er55     Er     0.0   0.0   0.5
Ti56     Ti     0.5388   0.0388   0.7112
Ti57     Ti     0.7112   0.0388   0.5388
Ti58     Ti     0.5388   0.2112   0.5388
V59     V     0.625   0.125   0.366
V60     V     0.366   0.125   0.625
Ti61     Ti     0.7112   0.2112   0.7112
V62     V     0.625   0.384   0.625
V63     V     0.625   0.866   0.625
V64     V     0.884   0.125   0.625
V65     V     0.625   0.125   0.884
Ti66     Ti     0.0388   0.7112   0.5388
V67     V     0.125   0.625   0.366
Ti68     Ti     0.2112   0.7112   0.7112
Ti69     Ti     0.2112   0.5388   0.5388
V70     V     0.384   0.625   0.625
Ti71     Ti     0.0388   0.5388   0.7112
V72     V     0.125   0.366   0.625
V73     V     0.866   0.625   0.625
V74     V     0.125   0.884   0.625
V75     V     0.125   0.625   0.884
Ti76     Ti     0.7888   0.2888   0.2888
V77     V     0.616   0.375   0.375
Ti78     Ti     0.7888   0.4612   0.4612
Ti79     Ti     0.9612   0.4612   0.2888
Ti80     Ti     0.9612   0.2888   0.4612
V81     V     0.134   0.375   0.375
V82     V     0.875   0.375   0.634
V83     V     0.875   0.375   0.116
V84     V     0.875   0.634   0.375
V85     V     0.875   0.116   0.375
Er86     Er     0.0   0.25   0.75
Ti87     Ti     0.0388   0.2112   0.0388
V88     V     0.125   0.384   0.125
Ti89     Ti     0.0388   0.0388   0.2112
Ti90     Ti     0.2112   0.2112   0.2112
V91     V     0.125   0.125   0.384
Ti92     Ti     0.2112   0.0388   0.0388
V93     V     0.384   0.125   0.125
V94     V     0.125   0.125   0.866
V95     V     0.125   0.866   0.125
V96     V     0.866   0.125   0.125
loop_
_geom_bond_atom_site_label_1
_geom_bond_atom_site_label_2
_geom_bond_distance
_geom_bond_site_symmetry_2
_ccdc_geom_bond_type
Er1     V62    10.0   .     S
Er1     V45    10.0   .     S
Er1     V40    10.0   .     S
Er1     V23    10.0   .     S
Er1     V70    10.0   .     S
Er1     V77    10.0   .     S
Er2     V30    10.0   .     S
Er2     V41    10.0   .     S
Er2     V50    10.0   .     S
Er2     V59    10.0   .     S
Er2     V77    10.0   .     S
Er2     V93    10.0   .     S
Ti3     V9    10.0   .     S
Ti3     V11    10.0   .     S
Ti3     V10    10.0   .     S
Ti4     V8    10.0   1_556     S
Ti4     V11    10.0   .     S
Ti4     V12    10.0   1_565     S
Ti5     V7    10.0   1_655     S
Ti5     V8    10.0   1_556     S
Ti5     V10    10.0   .     S
Ti6     V12    10.0   1_565     S
Ti6     V7    10.0   1_655     S
Ti6     V9    10.0   .     S
V7     Ti5    10.0   1_455     S
V7     Ti6    10.0   1_455     S
V7     Er16    10.0   1_556     S
V7     Er18    10.0   1_565     S
V8     Ti4    10.0   1_554     S
V8     Ti5    10.0   1_554     S
V8     Er20    10.0   1_655     S
V8     Er32    10.0   1_565     S
V9     Er19    10.0   .     S
V9     Er55    10.0   1_665     S
V10     Er17    10.0   1_656     S
V10     Er54    10.0   .     S
V11     Er15    10.0   .     S
V11     Er21    10.0   1_566     S
V12     Ti4    10.0   1_545     S
V12     Ti6    10.0   1_545     S
V12     Er33    10.0   1_556     S
V12     Er86    10.0   1_655     S
Er13     V41    10.0   .     S
Er13     V67    10.0   .     S
Er13     V81    10.0   .     S
Er13     V23    10.0   .     S
Er13     V49    10.0   .     S
Er13     V88    10.0   .     S
Er14     V72    10.0   .     S
Er14     V30    10.0   .     S
Er14     V81    10.0   .     S
Er14     V40    10.0   .     S
Er14     V60    10.0   .     S
Er14     V91    10.0   .     S
Er15     V63    10.0   .     S
Er15     V51    10.0   .     S
Er15     V38    10.0   .     S
Er15     V29    10.0   .     S
Er15     V70    10.0   .     S
Er16     V26    10.0   .     S
Er16     V49    10.0   .     S
Er16     V38    10.0   1_554     S
Er16     V7    10.0   1_554     S
Er16     V75    10.0   1_554     S
Er16     V95    10.0   .     S
Er17     V83    10.0   1_455     S
Er17     V43    10.0   1_554     S
Er17     V52    10.0   1_455     S
Er17     V75    10.0   1_554     S
Er17     V88    10.0   .     S
Er17     V10    10.0   1_454     S
Er18     V42    10.0   .     S
Er18     V29    10.0   1_545     S
Er18     V60    10.0   .     S
Er18     V7    10.0   1_545     S
Er18     V74    10.0   1_545     S
Er18     V94    10.0   .     S
Er19     V73    10.0   .     S
Er19     V45    10.0   .     S
Er19     V63    10.0   .     S
Er19     V25    10.0   .     S
Er19     V84    10.0   .     S
Er20     V67    10.0   .     S
Er20     V31    10.0   .     S
Er20     V52    10.0   1_455     S
Er20     V84    10.0   1_455     S
Er20     V8    10.0   1_455     S
Er20     V95    10.0   .     S
Er21     V42    10.0   1_554     S
Er21     V26    10.0   1_545     S
Er21     V53    10.0   1_545     S
Er21     V65    10.0   1_554     S
Er21     V11    10.0   1_544     S
Er21     V93    10.0   .     S
Ti22     V26    10.0   .     S
Ti22     V23    10.0   .     S
Ti22     V31    10.0   .     S
V23     Ti28    10.0   .     S
Ti24     V30    10.0   1_565     S
Ti24     V26    10.0   .     S
Ti24     V25    10.0   .     S
V25     Ti28    10.0   .     S
V25     Er32    10.0   1_565     S
V26     Er21    10.0   1_565     S
Ti27     V31    10.0   .     S
Ti27     V30    10.0   1_565     S
Ti27     V29    10.0   .     S
Ti28     V29    10.0   .     S
V29     Er18    10.0   1_565     S
V30     Ti24    10.0   1_545     S
V30     Ti27    10.0   1_545     S
V31     Er55    10.0   1_565     S
Er32     V8    10.0   1_545     S
Er32     V85    10.0   .     S
Er32     V53    10.0   1_545     S
Er32     V25    10.0   1_545     S
Er32     V59    10.0   .     S
Er32     V96    10.0   .     S
Er33     V83    10.0   .     S
Er33     V39    10.0   1_554     S
Er33     V50    10.0   .     S
Er33     V65    10.0   1_554     S
Er33     V96    10.0   .     S
Er33     V12    10.0   1_554     S
Ti34     V43    10.0   .     S
Ti34     V40    10.0   .     S
Ti34     V42    10.0   .     S
Ti35     V42    10.0   .     S
Ti35     V41    10.0   1_556     S
Ti35     V39    10.0   .     S
Ti36     V40    10.0   .     S
Ti36     V38    10.0   .     S
Ti36     V39    10.0   .     S
Ti37     V41    10.0   1_556     S
Ti37     V43    10.0   .     S
Ti37     V38    10.0   .     S
V38     Er16    10.0   1_556     S
V39     Er33    10.0   1_556     S
V39     Er54    10.0   .     S
V41     Ti35    10.0   1_554     S
V41     Ti37    10.0   1_554     S
V42     Er21    10.0   1_556     S
V43     Er17    10.0   1_556     S
V43     Er86    10.0   .     S
Ti44     V53    10.0   .     S
Ti44     V52    10.0   .     S
Ti44     V45    10.0   .     S
V45     Ti48    10.0   .     S
Ti46     V51    10.0   1_554     S
Ti46     V52    10.0   .     S
Ti46     V50    10.0   .     S
Ti47     V51    10.0   1_554     S
Ti47     V53    10.0   .     S
Ti47     V49    10.0   .     S
Ti48     V50    10.0   .     S
Ti48     V49    10.0   .     S
V51     Ti46    10.0   1_556     S
V51     Ti47    10.0   1_556     S
V51     Er54    10.0   .     S
V52     Er17    10.0   1_655     S
V52     Er20    10.0   1_655     S
V53     Er21    10.0   1_565     S
V53     Er32    10.0   1_565     S
Er54     V73    10.0   .     S
Er54     V62    10.0   .     S
Er54     V82    10.0   .     S
Er55     V31    10.0   1_545     S
Er55     V85    10.0   1_455     S
Er55     V74    10.0   1_545     S
Er55     V64    10.0   1_455     S
Er55     V9    10.0   1_445     S
Er55     V91    10.0   .     S
Ti56     V63    10.0   1_545     S
Ti56     V65    10.0   .     S
Ti56     V60    10.0   .     S
Ti57     V64    10.0   .     S
Ti57     V63    10.0   1_545     S
Ti57     V59    10.0   .     S
Ti58     V62    10.0   .     S
Ti58     V59    10.0   .     S
Ti58     V60    10.0   .     S
Ti61     V64    10.0   .     S
Ti61     V65    10.0   .     S
Ti61     V62    10.0   .     S
V63     Ti56    10.0   1_565     S
V63     Ti57    10.0   1_565     S
V64     Er55    10.0   1_655     S
V64     Er86    10.0   1_655     S
V65     Er21    10.0   1_556     S
V65     Er33    10.0   1_556     S
Ti66     V74    10.0   .     S
Ti66     V73    10.0   1_455     S
Ti66     V67    10.0   .     S
V67     Ti69    10.0   .     S
Ti68     V74    10.0   .     S
Ti68     V75    10.0   .     S
Ti68     V70    10.0   .     S
Ti69     V72    10.0   .     S
Ti69     V70    10.0   .     S
Ti71     V75    10.0   .     S
Ti71     V72    10.0   .     S
Ti71     V73    10.0   1_455     S
V72     Er86    10.0   .     S
V73     Ti66    10.0   1_655     S
V73     Ti71    10.0   1_655     S
V74     Er18    10.0   1_565     S
V74     Er55    10.0   1_565     S
V75     Er16    10.0   1_556     S
V75     Er17    10.0   1_556     S
Ti76     V83    10.0   .     S
Ti76     V77    10.0   .     S
Ti76     V85    10.0   .     S
V77     Ti78    10.0   .     S
Ti78     V84    10.0   .     S
Ti78     V82    10.0   .     S
Ti79     V81    10.0   1_655     S
Ti79     V83    10.0   .     S
Ti79     V84    10.0   .     S
Ti80     V81    10.0   1_655     S
Ti80     V85    10.0   .     S
Ti80     V82    10.0   .     S
V81     Ti79    10.0   1_455     S
V81     Ti80    10.0   1_455     S
V82     Er86    10.0   1_655     S
V83     Er17    10.0   1_655     S
V84     Er20    10.0   1_655     S
V85     Er55    10.0   1_655     S
Er86     V94    10.0   .     S
Er86     V64    10.0   1_455     S
Er86     V12    10.0   1_455     S
Er86     V82    10.0   1_455     S
Ti87     V96    10.0   1_455     S
Ti87     V94    10.0   1_554     S
Ti87     V88    10.0   .     S
V88     Ti90    10.0   .     S
Ti89     V95    10.0   1_545     S
Ti89     V96    10.0   1_455     S
Ti89     V91    10.0   .     S
Ti90     V93    10.0   .     S
Ti90     V91    10.0   .     S
Ti92     V94    10.0   1_554     S
Ti92     V95    10.0   1_545     S
Ti92     V93    10.0   .     S
V94     Ti87    10.0   1_556     S
V94     Ti92    10.0   1_556     S
V95     Ti89    10.0   1_565     S
V95     Ti92    10.0   1_565     S
V96     Ti87    10.0   1_655     S
V96     Ti89    10.0   1_655     S
