data_dnta
_audit_creation_date              2020-02-02
_audit_creation_method            'Pymatgen'
_symmetry_space_group_name_H-M    'P1'
_symmetry_Int_Tables_number       1
loop_
_symmetry_equiv_pos_as_xyz
  x,y,z
_cell_length_a                    127.359
_cell_length_b                    127.359
_cell_length_c                    127.359
_cell_angle_alpha                 90.0
_cell_angle_beta                 90.0
_cell_angle_gamma                 90.0
loop_
_atom_site_label
_atom_site_type_symbol
_atom_site_fract_x
_atom_site_fract_y
_atom_site_fract_z
Ce1     Ce     0.3688   0.3132   0.4243
Ce2     Ce     0.4243   0.3132   0.3688
Ce3     Ce     0.3688   0.4243   0.3132
Ce4     Ce     0.4243   0.3688   0.3132
Ce5     Ce     0.3132   0.4243   0.3688
Ce6     Ce     0.3132   0.3688   0.4243
Er7     Er     0.4186   0.1852   0.5
Ti8     Ti     0.3966   0.2495   0.4607
Ti9     Ti     0.3966   0.2495   0.5393
Ce10     Ce     0.3688   0.3132   0.5757
Ce11     Ce     0.3132   0.3688   0.5757
Ce12     Ce     0.3688   0.4243   0.6868
Ce13     Ce     0.4243   0.3688   0.6868
Ce14     Ce     0.3132   0.4243   0.6312
Ce15     Ce     0.4243   0.3132   0.6312
Er16     Er     0.1852   0.4186   0.5
Ti17     Ti     0.2495   0.3966   0.4607
Ti18     Ti     0.2495   0.3966   0.5393
Er19     Er     0.1852   0.5   0.4186
Ti20     Ti     0.2495   0.4607   0.3966
Ti21     Ti     0.2495   0.5393   0.3966
Ce22     Ce     0.3688   0.5757   0.3132
Ce23     Ce     0.3132   0.5757   0.3688
Ce24     Ce     0.4243   0.6868   0.3688
Ce25     Ce     0.3688   0.6868   0.4243
Ce26     Ce     0.3132   0.6312   0.4243
Ce27     Ce     0.4243   0.6312   0.3132
Er28     Er     0.4186   0.5   0.1852
Ti29     Ti     0.3966   0.4607   0.2495
Ti30     Ti     0.3966   0.5393   0.2495
Er31     Er     0.5814   0.5   0.1852
Ti32     Ti     0.6034   0.4607   0.2495
Ti33     Ti     0.6034   0.5393   0.2495
Er34     Er     0.5   0.5814   0.1852
Ti35     Ti     0.4607   0.6034   0.2495
Ti36     Ti     0.5393   0.6034   0.2495
Er37     Er     0.5   0.8148   0.4186
Ti38     Ti     0.4607   0.7505   0.3966
Ti39     Ti     0.5393   0.7505   0.3966
Ce40     Ce     0.5757   0.6868   0.3688
Ce41     Ce     0.6312   0.5757   0.3132
Ce42     Ce     0.5757   0.6312   0.3132
Ce43     Ce     0.6868   0.5757   0.3688
Ce44     Ce     0.6868   0.6312   0.4243
Ce45     Ce     0.6312   0.6868   0.4243
Er46     Er     0.8148   0.5   0.4186
Ti47     Ti     0.7505   0.4607   0.3966
Ti48     Ti     0.7505   0.5393   0.3966
Er49     Er     0.5   0.1852   0.5814
Ti50     Ti     0.4607   0.2495   0.6034
Ti51     Ti     0.5393   0.2495   0.6034
Er52     Er     0.5814   0.1852   0.5
Ti53     Ti     0.6034   0.2495   0.4607
Ti54     Ti     0.6034   0.2495   0.5393
Er55     Er     0.5   0.4186   0.8148
Ti56     Ti     0.4607   0.3966   0.7505
Ti57     Ti     0.5393   0.3966   0.7505
Ce58     Ce     0.5757   0.3688   0.6868
Ce59     Ce     0.6312   0.3132   0.5757
Ce60     Ce     0.5757   0.3132   0.6312
Ce61     Ce     0.6868   0.3688   0.5757
Ce62     Ce     0.6868   0.4243   0.6312
Ce63     Ce     0.6312   0.4243   0.6868
Er64     Er     0.8148   0.4186   0.5
Ti65     Ti     0.7505   0.3966   0.4607
Ti66     Ti     0.7505   0.3966   0.5393
Er67     Er     0.5   0.5814   0.8148
Ti68     Ti     0.4607   0.6034   0.7505
Ti69     Ti     0.5393   0.6034   0.7505
Er70     Er     0.5814   0.5   0.8148
Ti71     Ti     0.6034   0.4607   0.7505
Ti72     Ti     0.6034   0.5393   0.7505
Er73     Er     0.5814   0.8148   0.5
Ti74     Ti     0.6034   0.7505   0.4607
Ti75     Ti     0.6034   0.7505   0.5393
Er76     Er     0.8148   0.5   0.5814
Ti77     Ti     0.7505   0.4607   0.6034
Ti78     Ti     0.7505   0.5393   0.6034
Er79     Er     0.8148   0.5814   0.5
Ti80     Ti     0.7505   0.6034   0.4607
Ti81     Ti     0.7505   0.6034   0.5393
Ce82     Ce     0.5757   0.6868   0.6312
Ce83     Ce     0.6312   0.6868   0.5757
Ce84     Ce     0.6868   0.6312   0.5757
Ce85     Ce     0.6868   0.5757   0.6312
Ce86     Ce     0.6312   0.5757   0.6868
Ce87     Ce     0.5757   0.6312   0.6868
Er88     Er     0.5   0.8148   0.5814
Ti89     Ti     0.4607   0.7505   0.6034
Ti90     Ti     0.5393   0.7505   0.6034
Er91     Er     0.1852   0.5814   0.5
Ti92     Ti     0.2495   0.6034   0.4607
Ti93     Ti     0.2495   0.6034   0.5393
Er94     Er     0.1852   0.5   0.5814
Ti95     Ti     0.2495   0.4607   0.6034
Ti96     Ti     0.2495   0.5393   0.6034
Er97     Er     0.4186   0.5   0.8148
Ti98     Ti     0.3966   0.4607   0.7505
Ti99     Ti     0.3966   0.5393   0.7505
Ce100     Ce     0.3688   0.6868   0.5757
Ce101     Ce     0.4243   0.6312   0.6868
Ce102     Ce     0.4243   0.6868   0.6312
Ce103     Ce     0.3688   0.5757   0.6868
Ce104     Ce     0.3132   0.5757   0.6312
Ce105     Ce     0.3132   0.6312   0.5757
Er106     Er     0.4186   0.8148   0.5
Ti107     Ti     0.3966   0.7505   0.4607
Ti108     Ti     0.3966   0.7505   0.5393
Er109     Er     0.5   0.1852   0.4186
Ti110     Ti     0.4607   0.2495   0.3966
Ti111     Ti     0.5393   0.2495   0.3966
Ce112     Ce     0.5757   0.3688   0.3132
Ce113     Ce     0.5757   0.3132   0.3688
Ce114     Ce     0.6868   0.3688   0.4243
Ce115     Ce     0.6868   0.4243   0.3688
Ce116     Ce     0.6312   0.3132   0.4243
Ce117     Ce     0.6312   0.4243   0.3132
Er118     Er     0.5   0.4186   0.1852
Ti119     Ti     0.4607   0.3966   0.2495
Ti120     Ti     0.5393   0.3966   0.2495
V121     V     0.889   0.9445   0.0
V122     V     0.9445   0.889   0.0
V123     V     0.889   0.0   0.9445
V124     V     0.9445   0.0   0.889
V125     V     0.0   0.889   0.9445
V126     V     0.0   0.9445   0.889
V127     V     0.0   0.0555   0.889
V128     V     0.0555   0.0   0.889
V129     V     0.111   0.0   0.9445
V130     V     0.111   0.9445   0.0
V131     V     0.0555   0.889   0.0
V132     V     0.0   0.889   0.0555
V133     V     0.0   0.111   0.9445
V134     V     0.9445   0.111   0.0
V135     V     0.889   0.0555   0.0
V136     V     0.889   0.0   0.0555
V137     V     0.0   0.9445   0.111
V138     V     0.9445   0.0   0.111
V139     V     0.0   0.0555   0.111
V140     V     0.0   0.111   0.0555
V141     V     0.0555   0.0   0.111
V142     V     0.111   0.0   0.0555
V143     V     0.111   0.0555   0.0
V144     V     0.0555   0.111   0.0
Er145     Er     0.1852   0.0   0.0814
Ti146     Ti     0.2495   0.0393   0.1034
Ti147     Ti     0.2495   0.9607   0.1034
Er148     Er     0.1852   0.0814   0.0
Ti149     Ti     0.2495   0.1034   0.0393
Ti150     Ti     0.2495   0.1034   0.9607
Ce151     Ce     0.3688   0.1868   0.0757
Ce152     Ce     0.3132   0.1312   0.0757
Ce153     Ce     0.3688   0.0757   0.1868
Ce154     Ce     0.3132   0.0757   0.1312
Ce155     Ce     0.4243   0.1312   0.1868
Ce156     Ce     0.4243   0.1868   0.1312
Er157     Er     0.5   0.3148   0.0814
Ti158     Ti     0.4607   0.2505   0.1034
Ti159     Ti     0.5393   0.2505   0.1034
Er160     Er     0.5   0.0814   0.3148
Ti161     Ti     0.4607   0.1034   0.2505
Ti162     Ti     0.5393   0.1034   0.2505
Ce163     Ce     0.6868   0.0757   0.1312
Ce164     Ce     0.6868   0.1312   0.0757
Ce165     Ce     0.5757   0.1868   0.1312
Ce166     Ce     0.5757   0.1312   0.1868
Ce167     Ce     0.6312   0.0757   0.1868
Ce168     Ce     0.6312   0.1868   0.0757
Er169     Er     0.5   0.6852   0.0814
Ti170     Ti     0.4607   0.7495   0.1034
Ti171     Ti     0.5393   0.7495   0.1034
Er172     Er     0.5   0.0814   0.6852
Ti173     Ti     0.4607   0.1034   0.7495
Ti174     Ti     0.5393   0.1034   0.7495
Er175     Er     0.8148   0.0814   0.0
Ti176     Ti     0.7505   0.1034   0.0393
Ti177     Ti     0.7505   0.1034   0.9607
Er178     Er     0.5   0.3148   0.9186
Ti179     Ti     0.4607   0.2505   0.8966
Ti180     Ti     0.5393   0.2505   0.8966
Ce181     Ce     0.5757   0.1312   0.8132
Ce182     Ce     0.6312   0.1868   0.9243
Ce183     Ce     0.5757   0.1868   0.8688
Ce184     Ce     0.6868   0.1312   0.9243
Ce185     Ce     0.6868   0.0757   0.8688
Ce186     Ce     0.6312   0.0757   0.8132
Er187     Er     0.5814   0.3148   0.0
Ti188     Ti     0.6034   0.2505   0.0393
Ti189     Ti     0.6034   0.2505   0.9607
Er190     Er     0.5814   0.6852   0.0
Ti191     Ti     0.6034   0.7495   0.0393
Ti192     Ti     0.6034   0.7495   0.9607
Er193     Er     0.5   0.6852   0.9186
Ti194     Ti     0.4607   0.7495   0.8966
Ti195     Ti     0.5393   0.7495   0.8966
Er196     Er     0.5   0.9186   0.6852
Ti197     Ti     0.4607   0.8966   0.7495
Ti198     Ti     0.5393   0.8966   0.7495
Er199     Er     0.5814   0.0   0.6852
Ti200     Ti     0.6034   0.0393   0.7495
Ti201     Ti     0.6034   0.9607   0.7495
Er202     Er     0.8148   0.0   0.9186
Ti203     Ti     0.7505   0.0393   0.8966
Ti204     Ti     0.7505   0.9607   0.8966
Ce205     Ce     0.6868   0.8688   0.9243
Ce206     Ce     0.6868   0.9243   0.8688
Ce207     Ce     0.6312   0.8132   0.9243
Ce208     Ce     0.5757   0.8132   0.8688
Ce209     Ce     0.6312   0.9243   0.8132
Ce210     Ce     0.5757   0.8688   0.8132
Er211     Er     0.8148   0.9186   0.0
Ti212     Ti     0.7505   0.8966   0.0393
Ti213     Ti     0.7505   0.8966   0.9607
Er214     Er     0.8148   0.0   0.0814
Ti215     Ti     0.7505   0.0393   0.1034
Ti216     Ti     0.7505   0.9607   0.1034
Er217     Er     0.5814   0.0   0.3148
Ti218     Ti     0.6034   0.0393   0.2505
Ti219     Ti     0.6034   0.9607   0.2505
Ce220     Ce     0.5757   0.8132   0.1312
Ce221     Ce     0.6868   0.8688   0.0757
Ce222     Ce     0.6312   0.8132   0.0757
Ce223     Ce     0.6868   0.9243   0.1312
Ce224     Ce     0.5757   0.8688   0.1868
Ce225     Ce     0.6312   0.9243   0.1868
Er226     Er     0.5   0.9186   0.3148
Ti227     Ti     0.4607   0.8966   0.2505
Ti228     Ti     0.5393   0.8966   0.2505
Er229     Er     0.4186   0.3148   0.0
Ti230     Ti     0.3966   0.2505   0.0393
Ti231     Ti     0.3966   0.2505   0.9607
Er232     Er     0.1852   0.9186   0.0
Ti233     Ti     0.2495   0.8966   0.0393
Ti234     Ti     0.2495   0.8966   0.9607
Er235     Er     0.1852   0.0   0.9186
Ti236     Ti     0.2495   0.0393   0.8966
Ti237     Ti     0.2495   0.9607   0.8966
Ce238     Ce     0.3688   0.9243   0.1868
Ce239     Ce     0.3132   0.9243   0.1312
Ce240     Ce     0.3688   0.8132   0.0757
Ce241     Ce     0.4243   0.8132   0.1312
Ce242     Ce     0.3132   0.8688   0.0757
Ce243     Ce     0.4243   0.8688   0.1868
Er244     Er     0.4186   0.0   0.3148
Ti245     Ti     0.3966   0.0393   0.2505
Ti246     Ti     0.3966   0.9607   0.2505
Ce247     Ce     0.3688   0.1868   0.9243
Ce248     Ce     0.3132   0.1312   0.9243
Ce249     Ce     0.3688   0.0757   0.8132
Ce250     Ce     0.4243   0.1312   0.8132
Ce251     Ce     0.3132   0.0757   0.8688
Ce252     Ce     0.4243   0.1868   0.8688
Er253     Er     0.4186   0.6852   0.0
Ti254     Ti     0.3966   0.7495   0.0393
Ti255     Ti     0.3966   0.7495   0.9607
Ce256     Ce     0.3688   0.8132   0.9243
Ce257     Ce     0.3132   0.9243   0.8688
Ce258     Ce     0.3132   0.8688   0.9243
Ce259     Ce     0.3688   0.9243   0.8132
Ce260     Ce     0.4243   0.8688   0.8132
Ce261     Ce     0.4243   0.8132   0.8688
Er262     Er     0.4186   0.0   0.6852
Ti263     Ti     0.3966   0.0393   0.7495
Ti264     Ti     0.3966   0.9607   0.7495
V265     V     0.611   0.5555   0.0
V266     V     0.5555   0.611   0.0
V267     V     0.5   0.611   0.9445
V268     V     0.5   0.5555   0.889
V269     V     0.611   0.5   0.9445
V270     V     0.5555   0.5   0.889
V271     V     0.4445   0.611   0.0
V272     V     0.5   0.611   0.0555
V273     V     0.5   0.5555   0.111
V274     V     0.5555   0.5   0.111
V275     V     0.611   0.5   0.0555
V276     V     0.611   0.4445   0.0
V277     V     0.5555   0.389   0.0
V278     V     0.5   0.389   0.9445
V279     V     0.4445   0.5   0.889
V280     V     0.5   0.4445   0.889
V281     V     0.5   0.389   0.0555
V282     V     0.4445   0.389   0.0
V283     V     0.4445   0.5   0.111
V284     V     0.5   0.4445   0.111
V285     V     0.389   0.5555   0.0
V286     V     0.389   0.5   0.9445
V287     V     0.389   0.5   0.0555
V288     V     0.389   0.4445   0.0
Er289     Er     0.0814   0.1852   0.0
Ti290     Ti     0.1034   0.2495   0.0393
Ti291     Ti     0.1034   0.2495   0.9607
Er292     Er     0.0   0.1852   0.0814
Ti293     Ti     0.0393   0.2495   0.1034
Ti294     Ti     0.9607   0.2495   0.1034
Ce295     Ce     0.1868   0.3688   0.0757
Ce296     Ce     0.1312   0.3132   0.0757
Ce297     Ce     0.0757   0.3688   0.1868
Ce298     Ce     0.0757   0.3132   0.1312
Ce299     Ce     0.1312   0.4243   0.1868
Ce300     Ce     0.1868   0.4243   0.1312
Er301     Er     0.3148   0.5   0.0814
Ti302     Ti     0.2505   0.4607   0.1034
Ti303     Ti     0.2505   0.5393   0.1034
Er304     Er     0.0814   0.5   0.3148
Ti305     Ti     0.1034   0.4607   0.2505
Ti306     Ti     0.1034   0.5393   0.2505
Er307     Er     0.3148   0.4186   0.0
Ti308     Ti     0.2505   0.3966   0.0393
Ti309     Ti     0.2505   0.3966   0.9607
Er310     Er     0.0   0.1852   0.9186
Ti311     Ti     0.0393   0.2495   0.8966
Ti312     Ti     0.9607   0.2495   0.8966
Er313     Er     0.9186   0.1852   0.0
Ti314     Ti     0.8966   0.2495   0.0393
Ti315     Ti     0.8966   0.2495   0.9607
Ce316     Ce     0.9243   0.3688   0.1868
Ce317     Ce     0.9243   0.3132   0.1312
Ce318     Ce     0.8132   0.3688   0.0757
Ce319     Ce     0.8132   0.4243   0.1312
Ce320     Ce     0.8688   0.3132   0.0757
Ce321     Ce     0.8688   0.4243   0.1868
Er322     Er     0.0   0.4186   0.3148
Ti323     Ti     0.0393   0.3966   0.2505
Ti324     Ti     0.9607   0.3966   0.2505
Ce325     Ce     0.1868   0.3688   0.9243
Ce326     Ce     0.1312   0.3132   0.9243
Ce327     Ce     0.0757   0.3688   0.8132
Ce328     Ce     0.1312   0.4243   0.8132
Ce329     Ce     0.0757   0.3132   0.8688
Ce330     Ce     0.1868   0.4243   0.8688
Er331     Er     0.6852   0.4186   0.0
Ti332     Ti     0.7495   0.3966   0.0393
Ti333     Ti     0.7495   0.3966   0.9607
Ce334     Ce     0.8132   0.3688   0.9243
Ce335     Ce     0.9243   0.3132   0.8688
Ce336     Ce     0.8688   0.3132   0.9243
Ce337     Ce     0.9243   0.3688   0.8132
Ce338     Ce     0.8688   0.4243   0.8132
Ce339     Ce     0.8132   0.4243   0.8688
Er340     Er     0.0   0.4186   0.6852
Ti341     Ti     0.0393   0.3966   0.7495
Ti342     Ti     0.9607   0.3966   0.7495
Ce343     Ce     0.1312   0.6868   0.0757
Ce344     Ce     0.0757   0.6868   0.1312
Ce345     Ce     0.1868   0.5757   0.1312
Ce346     Ce     0.1312   0.5757   0.1868
Ce347     Ce     0.0757   0.6312   0.1868
Ce348     Ce     0.1868   0.6312   0.0757
Er349     Er     0.6852   0.5   0.0814
Ti350     Ti     0.7495   0.4607   0.1034
Ti351     Ti     0.7495   0.5393   0.1034
Er352     Er     0.0814   0.5   0.6852
Ti353     Ti     0.1034   0.4607   0.7495
Ti354     Ti     0.1034   0.5393   0.7495
Er355     Er     0.0   0.8148   0.0814
Ti356     Ti     0.0393   0.7505   0.1034
Ti357     Ti     0.9607   0.7505   0.1034
Er358     Er     0.0814   0.8148   0.0
Ti359     Ti     0.1034   0.7505   0.0393
Ti360     Ti     0.1034   0.7505   0.9607
Er361     Er     0.3148   0.5814   0.0
Ti362     Ti     0.2505   0.6034   0.0393
Ti363     Ti     0.2505   0.6034   0.9607
Ce364     Ce     0.1312   0.5757   0.8132
Ce365     Ce     0.1868   0.6312   0.9243
Ce366     Ce     0.1868   0.5757   0.8688
Ce367     Ce     0.1312   0.6868   0.9243
Ce368     Ce     0.0757   0.6868   0.8688
Ce369     Ce     0.0757   0.6312   0.8132
Er370     Er     0.3148   0.5   0.9186
Ti371     Ti     0.2505   0.4607   0.8966
Ti372     Ti     0.2505   0.5393   0.8966
Er373     Er     0.6852   0.5   0.9186
Ti374     Ti     0.7495   0.4607   0.8966
Ti375     Ti     0.7495   0.5393   0.8966
Er376     Er     0.6852   0.5814   0.0
Ti377     Ti     0.7495   0.6034   0.0393
Ti378     Ti     0.7495   0.6034   0.9607
Er379     Er     0.0   0.5814   0.6852
Ti380     Ti     0.0393   0.6034   0.7495
Ti381     Ti     0.9607   0.6034   0.7495
Er382     Er     0.9186   0.5   0.6852
Ti383     Ti     0.8966   0.4607   0.7495
Ti384     Ti     0.8966   0.5393   0.7495
Er385     Er     0.0   0.8148   0.9186
Ti386     Ti     0.0393   0.7505   0.8966
Ti387     Ti     0.9607   0.7505   0.8966
Ce388     Ce     0.8688   0.6868   0.9243
Ce389     Ce     0.9243   0.6868   0.8688
Ce390     Ce     0.9243   0.6312   0.8132
Ce391     Ce     0.8688   0.5757   0.8132
Ce392     Ce     0.8132   0.6312   0.9243
Ce393     Ce     0.8132   0.5757   0.8688
Er394     Er     0.9186   0.8148   0.0
Ti395     Ti     0.8966   0.7505   0.0393
Ti396     Ti     0.8966   0.7505   0.9607
Er397     Er     0.9186   0.5   0.3148
Ti398     Ti     0.8966   0.4607   0.2505
Ti399     Ti     0.8966   0.5393   0.2505
Ce400     Ce     0.8132   0.5757   0.1312
Ce401     Ce     0.8688   0.6868   0.0757
Ce402     Ce     0.8132   0.6312   0.0757
Ce403     Ce     0.9243   0.6868   0.1312
Ce404     Ce     0.9243   0.6312   0.1868
Ce405     Ce     0.8688   0.5757   0.1868
Er406     Er     0.0   0.5814   0.3148
Ti407     Ti     0.0393   0.6034   0.2505
Ti408     Ti     0.9607   0.6034   0.2505
V409     V     0.611   0.9445   0.5
V410     V     0.5555   0.889   0.5
V411     V     0.5   0.889   0.5555
V412     V     0.5   0.9445   0.611
V413     V     0.611   0.0   0.5555
V414     V     0.5555   0.0   0.611
V415     V     0.5   0.889   0.4445
V416     V     0.4445   0.889   0.5
V417     V     0.5   0.9445   0.389
V418     V     0.5555   0.0   0.389
V419     V     0.611   0.0   0.4445
V420     V     0.611   0.0555   0.5
V421     V     0.5   0.0555   0.389
V422     V     0.4445   0.0   0.389
V423     V     0.5555   0.111   0.5
V424     V     0.5   0.111   0.5555
V425     V     0.5   0.0555   0.611
V426     V     0.4445   0.0   0.611
V427     V     0.4445   0.111   0.5
V428     V     0.5   0.111   0.4445
V429     V     0.389   0.9445   0.5
V430     V     0.389   0.0   0.5555
V431     V     0.389   0.0   0.4445
V432     V     0.389   0.0555   0.5
V433     V     0.889   0.5555   0.5
V434     V     0.9445   0.611   0.5
V435     V     0.889   0.5   0.5555
V436     V     0.9445   0.5   0.611
V437     V     0.0   0.611   0.5555
V438     V     0.0   0.5555   0.611
V439     V     0.889   0.5   0.4445
V440     V     0.889   0.4445   0.5
V441     V     0.9445   0.5   0.389
V442     V     0.0   0.5555   0.389
V443     V     0.0   0.611   0.4445
V444     V     0.0555   0.611   0.5
V445     V     0.0   0.4445   0.389
V446     V     0.0555   0.5   0.389
V447     V     0.111   0.5555   0.5
V448     V     0.111   0.5   0.5555
V449     V     0.0555   0.5   0.611
V450     V     0.0   0.4445   0.611
V451     V     0.111   0.4445   0.5
V452     V     0.111   0.5   0.4445
V453     V     0.9445   0.389   0.5
V454     V     0.0   0.389   0.5555
V455     V     0.0   0.389   0.4445
V456     V     0.0555   0.389   0.5
Er457     Er     0.0   0.0814   0.1852
Ti458     Ti     0.0393   0.1034   0.2495
Ti459     Ti     0.9607   0.1034   0.2495
Er460     Er     0.0814   0.0   0.1852
Ti461     Ti     0.1034   0.0393   0.2495
Ti462     Ti     0.1034   0.9607   0.2495
Ce463     Ce     0.1868   0.0757   0.3688
Ce464     Ce     0.1312   0.0757   0.3132
Ce465     Ce     0.0757   0.1868   0.3688
Ce466     Ce     0.0757   0.1312   0.3132
Ce467     Ce     0.1312   0.1868   0.4243
Ce468     Ce     0.1868   0.1312   0.4243
Er469     Er     0.3148   0.0814   0.5
Ti470     Ti     0.2505   0.1034   0.4607
Ti471     Ti     0.2505   0.1034   0.5393
Er472     Er     0.0814   0.3148   0.5
Ti473     Ti     0.1034   0.2505   0.4607
Ti474     Ti     0.1034   0.2505   0.5393
Ce475     Ce     0.0757   0.1312   0.6868
Ce476     Ce     0.1312   0.0757   0.6868
Ce477     Ce     0.1868   0.1312   0.5757
Ce478     Ce     0.1312   0.1868   0.5757
Ce479     Ce     0.0757   0.1868   0.6312
Ce480     Ce     0.1868   0.0757   0.6312
Er481     Er     0.6852   0.0814   0.5
Ti482     Ti     0.7495   0.1034   0.4607
Ti483     Ti     0.7495   0.1034   0.5393
Er484     Er     0.0814   0.6852   0.5
Ti485     Ti     0.1034   0.7495   0.4607
Ti486     Ti     0.1034   0.7495   0.5393
Er487     Er     0.0814   0.0   0.8148
Ti488     Ti     0.1034   0.0393   0.7505
Ti489     Ti     0.1034   0.9607   0.7505
Er490     Er     0.0   0.0814   0.8148
Ti491     Ti     0.0393   0.1034   0.7505
Ti492     Ti     0.9607   0.1034   0.7505
Er493     Er     0.0   0.3148   0.5814
Ti494     Ti     0.0393   0.2505   0.6034
Ti495     Ti     0.9607   0.2505   0.6034
Ce496     Ce     0.8132   0.1312   0.5757
Ce497     Ce     0.9243   0.1868   0.6312
Ce498     Ce     0.8688   0.1868   0.5757
Ce499     Ce     0.9243   0.1312   0.6868
Ce500     Ce     0.8688   0.0757   0.6868
Ce501     Ce     0.8132   0.0757   0.6312
Er502     Er     0.9186   0.3148   0.5
Ti503     Ti     0.8966   0.2505   0.4607
Ti504     Ti     0.8966   0.2505   0.5393
Er505     Er     0.6852   0.0   0.5814
Ti506     Ti     0.7495   0.0393   0.6034
Ti507     Ti     0.7495   0.9607   0.6034
Er508     Er     0.6852   0.9186   0.5
Ti509     Ti     0.7495   0.8966   0.4607
Ti510     Ti     0.7495   0.8966   0.5393
Er511     Er     0.0   0.6852   0.5814
Ti512     Ti     0.0393   0.7495   0.6034
Ti513     Ti     0.9607   0.7495   0.6034
Er514     Er     0.0   0.9186   0.8148
Ti515     Ti     0.0393   0.8966   0.7505
Ti516     Ti     0.9607   0.8966   0.7505
Er517     Er     0.9186   0.0   0.8148
Ti518     Ti     0.8966   0.0393   0.7505
Ti519     Ti     0.8966   0.9607   0.7505
Ce520     Ce     0.8688   0.8132   0.5757
Ce521     Ce     0.9243   0.8132   0.6312
Ce522     Ce     0.9243   0.8688   0.6868
Ce523     Ce     0.8688   0.9243   0.6868
Ce524     Ce     0.8132   0.9243   0.6312
Ce525     Ce     0.8132   0.8688   0.5757
Er526     Er     0.9186   0.6852   0.5
Ti527     Ti     0.8966   0.7495   0.4607
Ti528     Ti     0.8966   0.7495   0.5393
Er529     Er     0.3148   0.9186   0.5
Ti530     Ti     0.2505   0.8966   0.4607
Ti531     Ti     0.2505   0.8966   0.5393
Ce532     Ce     0.1312   0.8132   0.5757
Ce533     Ce     0.1868   0.9243   0.6312
Ce534     Ce     0.1868   0.8688   0.5757
Ce535     Ce     0.1312   0.9243   0.6868
Ce536     Ce     0.0757   0.8688   0.6868
Ce537     Ce     0.0757   0.8132   0.6312
Er538     Er     0.3148   0.0   0.5814
Ti539     Ti     0.2505   0.0393   0.6034
Ti540     Ti     0.2505   0.9607   0.6034
Er541     Er     0.3148   0.0   0.4186
Ti542     Ti     0.2505   0.0393   0.3966
Ti543     Ti     0.2505   0.9607   0.3966
Er544     Er     0.0   0.3148   0.4186
Ti545     Ti     0.0393   0.2505   0.3966
Ti546     Ti     0.9607   0.2505   0.3966
Er547     Er     0.0   0.9186   0.1852
Ti548     Ti     0.0393   0.8966   0.2495
Ti549     Ti     0.9607   0.8966   0.2495
Ce550     Ce     0.9243   0.1868   0.3688
Ce551     Ce     0.9243   0.1312   0.3132
Ce552     Ce     0.8132   0.0757   0.3688
Ce553     Ce     0.8132   0.1312   0.4243
Ce554     Ce     0.8688   0.0757   0.3132
Ce555     Ce     0.8688   0.1868   0.4243
Ce556     Ce     0.1868   0.9243   0.3688
Ce557     Ce     0.1312   0.9243   0.3132
Ce558     Ce     0.0757   0.8132   0.3688
Ce559     Ce     0.1312   0.8132   0.4243
Ce560     Ce     0.0757   0.8688   0.3132
Ce561     Ce     0.1868   0.8688   0.4243
Er562     Er     0.9186   0.0   0.1852
Ti563     Ti     0.8966   0.0393   0.2495
Ti564     Ti     0.8966   0.9607   0.2495
Er565     Er     0.6852   0.0   0.4186
Ti566     Ti     0.7495   0.0393   0.3966
Ti567     Ti     0.7495   0.9607   0.3966
Ce568     Ce     0.8132   0.9243   0.3688
Ce569     Ce     0.8688   0.8132   0.4243
Ce570     Ce     0.8132   0.8688   0.4243
Ce571     Ce     0.9243   0.8132   0.3688
Ce572     Ce     0.8688   0.9243   0.3132
Ce573     Ce     0.9243   0.8688   0.3132
Er574     Er     0.0   0.6852   0.4186
Ti575     Ti     0.0393   0.7495   0.3966
Ti576     Ti     0.9607   0.7495   0.3966
loop_
_geom_bond_atom_site_label_1
_geom_bond_atom_site_label_2
_geom_bond_distance
_geom_bond_site_symmetry_2
_ccdc_geom_bond_type
Ce1     Ce2    10.0   .     S
Ce1     Ce6    10.0   .     S
Ce1     Ti8    10.0   .     S
Ce2     Ce4    10.0   .     S
Ce2     Ti110    10.0   .     S
Ce3     Ce4    10.0   .     S
Ce3     Ce5    10.0   .     S
Ce3     Ti29    10.0   .     S
Ce4     Ti119    10.0   .     S
Ce5     Ce6    10.0   .     S
Ce5     Ti20    10.0   .     S
Ce6     Ti17    10.0   .     S
Er7     V427    10.0   .     S
Er7     Ti8    10.0   .     S
Er7     Ti9    10.0   .     S
Ti8     Ti9    10.0   .     S
Ti9     Ce10    10.0   .     S
Ce10     Ce15    10.0   .     S
Ce10     Ce11    10.0   .     S
Ce11     Ce14    10.0   .     S
Ce11     Ti18    10.0   .     S
Ce12     Ce13    10.0   .     S
Ce12     Ce14    10.0   .     S
Ce12     Ti98    10.0   .     S
Ce13     Ce15    10.0   .     S
Ce13     Ti56    10.0   .     S
Ce14     Ti95    10.0   .     S
Ce15     Ti50    10.0   .     S
Er16     V451    10.0   .     S
Er16     Ti17    10.0   .     S
Er16     Ti18    10.0   .     S
Ti17     Ti18    10.0   .     S
Er19     V452    10.0   .     S
Er19     Ti20    10.0   .     S
Er19     Ti21    10.0   .     S
Ti20     Ti21    10.0   .     S
Ti21     Ce23    10.0   .     S
Ce22     Ce27    10.0   .     S
Ce22     Ce23    10.0   .     S
Ce22     Ti30    10.0   .     S
Ce23     Ce26    10.0   .     S
Ce24     Ce25    10.0   .     S
Ce24     Ce27    10.0   .     S
Ce24     Ti38    10.0   .     S
Ce25     Ce26    10.0   .     S
Ce25     Ti107    10.0   .     S
Ce26     Ti92    10.0   .     S
Ce27     Ti35    10.0   .     S
Er28     V283    10.0   .     S
Er28     Ti29    10.0   .     S
Er28     Ti30    10.0   .     S
Ti29     Ti30    10.0   .     S
Er31     V274    10.0   .     S
Er31     Ti32    10.0   .     S
Er31     Ti33    10.0   .     S
Ti32     Ce117    10.0   .     S
Ti32     Ti33    10.0   .     S
Ti33     Ce41    10.0   .     S
Er34     V273    10.0   .     S
Er34     Ti35    10.0   .     S
Er34     Ti36    10.0   .     S
Ti35     Ti36    10.0   .     S
Ti36     Ce42    10.0   .     S
Er37     V415    10.0   .     S
Er37     Ti38    10.0   .     S
Er37     Ti39    10.0   .     S
Ti38     Ti39    10.0   .     S
Ti39     Ce40    10.0   .     S
Ce40     Ce45    10.0   .     S
Ce40     Ce42    10.0   .     S
Ce41     Ce42    10.0   .     S
Ce41     Ce43    10.0   .     S
Ce43     Ce44    10.0   .     S
Ce43     Ti48    10.0   .     S
Ce44     Ce45    10.0   .     S
Ce44     Ti80    10.0   .     S
Ce45     Ti74    10.0   .     S
Er46     V439    10.0   .     S
Er46     Ti47    10.0   .     S
Er46     Ti48    10.0   .     S
Ti47     Ce115    10.0   .     S
Ti47     Ti48    10.0   .     S
Er49     V424    10.0   .     S
Er49     Ti50    10.0   .     S
Er49     Ti51    10.0   .     S
Ti50     Ti51    10.0   .     S
Ti51     Ce60    10.0   .     S
Er52     V423    10.0   .     S
Er52     Ti53    10.0   .     S
Er52     Ti54    10.0   .     S
Ti53     Ce116    10.0   .     S
Ti53     Ti54    10.0   .     S
Ti54     Ce59    10.0   .     S
Er55     V280    10.0   .     S
Er55     Ti56    10.0   .     S
Er55     Ti57    10.0   .     S
Ti56     Ti57    10.0   .     S
Ti57     Ce58    10.0   .     S
Ce58     Ce63    10.0   .     S
Ce58     Ce60    10.0   .     S
Ce59     Ce60    10.0   .     S
Ce59     Ce61    10.0   .     S
Ce61     Ce62    10.0   .     S
Ce61     Ti66    10.0   .     S
Ce62     Ce63    10.0   .     S
Ce62     Ti77    10.0   .     S
Ce63     Ti71    10.0   .     S
Er64     V440    10.0   .     S
Er64     Ti65    10.0   .     S
Er64     Ti66    10.0   .     S
Ti65     Ce114    10.0   .     S
Ti65     Ti66    10.0   .     S
Er67     V268    10.0   .     S
Er67     Ti68    10.0   .     S
Er67     Ti69    10.0   .     S
Ti68     Ce101    10.0   .     S
Ti68     Ti69    10.0   .     S
Ti69     Ce87    10.0   .     S
Er70     V270    10.0   .     S
Er70     Ti71    10.0   .     S
Er70     Ti72    10.0   .     S
Ti71     Ti72    10.0   .     S
Ti72     Ce86    10.0   .     S
Er73     V410    10.0   .     S
Er73     Ti74    10.0   .     S
Er73     Ti75    10.0   .     S
Ti74     Ti75    10.0   .     S
Ti75     Ce83    10.0   .     S
Er76     V435    10.0   .     S
Er76     Ti77    10.0   .     S
Er76     Ti78    10.0   .     S
Ti77     Ti78    10.0   .     S
Ti78     Ce85    10.0   .     S
Er79     V433    10.0   .     S
Er79     Ti80    10.0   .     S
Er79     Ti81    10.0   .     S
Ti80     Ti81    10.0   .     S
Ti81     Ce84    10.0   .     S
Ce82     Ce83    10.0   .     S
Ce82     Ce87    10.0   .     S
Ce82     Ti90    10.0   .     S
Ce83     Ce84    10.0   .     S
Ce84     Ce85    10.0   .     S
Ce85     Ce86    10.0   .     S
Ce86     Ce87    10.0   .     S
Er88     V411    10.0   .     S
Er88     Ti89    10.0   .     S
Er88     Ti90    10.0   .     S
Ti89     Ce102    10.0   .     S
Ti89     Ti90    10.0   .     S
Er91     V447    10.0   .     S
Er91     Ti92    10.0   .     S
Er91     Ti93    10.0   .     S
Ti92     Ti93    10.0   .     S
Ti93     Ce105    10.0   .     S
Er94     V448    10.0   .     S
Er94     Ti95    10.0   .     S
Er94     Ti96    10.0   .     S
Ti95     Ti96    10.0   .     S
Ti96     Ce104    10.0   .     S
Er97     V279    10.0   .     S
Er97     Ti98    10.0   .     S
Er97     Ti99    10.0   .     S
Ti98     Ti99    10.0   .     S
Ti99     Ce103    10.0   .     S
Ce100     Ce102    10.0   .     S
Ce100     Ce105    10.0   .     S
Ce100     Ti108    10.0   .     S
Ce101     Ce102    10.0   .     S
Ce101     Ce103    10.0   .     S
Ce103     Ce104    10.0   .     S
Ce104     Ce105    10.0   .     S
Er106     V416    10.0   .     S
Er106     Ti107    10.0   .     S
Er106     Ti108    10.0   .     S
Ti107     Ti108    10.0   .     S
Er109     V428    10.0   .     S
Er109     Ti110    10.0   .     S
Er109     Ti111    10.0   .     S
Ti110     Ti111    10.0   .     S
Ti111     Ce113    10.0   .     S
Ce112     Ce117    10.0   .     S
Ce112     Ce113    10.0   .     S
Ce112     Ti120    10.0   .     S
Ce113     Ce116    10.0   .     S
Ce114     Ce115    10.0   .     S
Ce114     Ce116    10.0   .     S
Ce115     Ce117    10.0   .     S
Er118     V284    10.0   .     S
Er118     Ti119    10.0   .     S
Er118     Ti120    10.0   .     S
Ti119     Ti120    10.0   .     S
V121     V136    10.0   1_565     S
V121     V122    10.0   .     S
V121     V123    10.0   1_564     S
V121     Er211    10.0   .     S
V122     V132    10.0   1_655     S
V122     V125    10.0   1_654     S
V122     Er394    10.0   .     S
V123     V135    10.0   1_556     S
V123     V124    10.0   .     S
V123     V121    10.0   1_546     S
V123     Er202    10.0   .     S
V124     V127    10.0   1_655     S
V124     V126    10.0   1_645     S
V124     Er517    10.0   .     S
V125     V131    10.0   1_556     S
V125     V126    10.0   .     S
V125     V122    10.0   1_456     S
V125     Er385    10.0   .     S
V126     V128    10.0   1_565     S
V126     V124    10.0   1_465     S
V126     Er514    10.0   .     S
V127     V124    10.0   1_455     S
V127     V133    10.0   .     S
V127     V128    10.0   .     S
V127     Er490    10.0   .     S
V128     V126    10.0   1_545     S
V128     V129    10.0   .     S
V128     Er487    10.0   .     S
V129     V143    10.0   1_556     S
V129     V130    10.0   1_546     S
V129     Er235    10.0   .     S
V130     V142    10.0   1_565     S
V130     V129    10.0   1_564     S
V130     V131    10.0   .     S
V130     Er232    10.0   .     S
V131     V125    10.0   1_554     S
V131     V132    10.0   .     S
V131     Er358    10.0   .     S
V132     V122    10.0   1_455     S
V132     V137    10.0   .     S
V132     Er355    10.0   .     S
V133     V144    10.0   1_556     S
V133     V134    10.0   1_456     S
V133     Er310    10.0   .     S
V134     V140    10.0   1_655     S
V134     V133    10.0   1_654     S
V134     V135    10.0   .     S
V134     Er313    10.0   .     S
V135     V123    10.0   1_554     S
V135     V136    10.0   .     S
V135     Er175    10.0   .     S
V136     V121    10.0   1_545     S
V136     V138    10.0   .     S
V136     Er214    10.0   .     S
V137     V141    10.0   1_565     S
V137     V138    10.0   1_465     S
V137     Er547    10.0   .     S
V138     V139    10.0   1_655     S
V138     V137    10.0   1_645     S
V138     Er562    10.0   .     S
V139     V138    10.0   1_455     S
V139     V140    10.0   .     S
V139     V141    10.0   .     S
V139     Er457    10.0   .     S
V140     V134    10.0   1_455     S
V140     V144    10.0   .     S
V140     Er292    10.0   .     S
V141     V137    10.0   1_545     S
V141     V142    10.0   .     S
V141     Er460    10.0   .     S
V142     V130    10.0   1_545     S
V142     V143    10.0   .     S
V142     Er145    10.0   .     S
V143     V129    10.0   1_554     S
V143     V144    10.0   .     S
V143     Er148    10.0   .     S
V144     V133    10.0   1_554     S
V144     Er289    10.0   .     S
Er145     Ti146    10.0   .     S
Er145     Ti147    10.0   1_545     S
Ti146     Ce154    10.0   .     S
Ti146     Ti147    10.0   1_545     S
Ti147     Er145    10.0   1_565     S
Ti147     Ce239    10.0   .     S
Ti147     Ti146    10.0   1_565     S
Er148     Ti149    10.0   .     S
Er148     Ti150    10.0   1_554     S
Ti149     Ce152    10.0   .     S
Ti149     Ti150    10.0   1_554     S
Ti150     Er148    10.0   1_556     S
Ti150     Ce248    10.0   .     S
Ti150     Ti149    10.0   1_556     S
Ce151     Ce156    10.0   .     S
Ce151     Ce152    10.0   .     S
Ce151     Ti230    10.0   .     S
Ce152     Ce154    10.0   .     S
Ce153     Ce155    10.0   .     S
Ce153     Ce154    10.0   .     S
Ce153     Ti245    10.0   .     S
Ce155     Ce156    10.0   .     S
Ce155     Ti161    10.0   .     S
Ce156     Ti158    10.0   .     S
Er157     V281    10.0   .     S
Er157     Ti158    10.0   .     S
Er157     Ti159    10.0   .     S
Ti158     Ti159    10.0   .     S
Ti159     Ce165    10.0   .     S
Er160     V421    10.0   .     S
Er160     Ti161    10.0   .     S
Er160     Ti162    10.0   .     S
Ti161     Ti162    10.0   .     S
Ti162     Ce166    10.0   .     S
Ce163     Ce167    10.0   .     S
Ce163     Ce164    10.0   .     S
Ce163     Ti215    10.0   .     S
Ce164     Ce168    10.0   .     S
Ce164     Ti176    10.0   .     S
Ce165     Ce168    10.0   .     S
Ce165     Ce166    10.0   .     S
Ce166     Ce167    10.0   .     S
Ce167     Ti218    10.0   .     S
Ce168     Ti188    10.0   .     S
Er169     V272    10.0   .     S
Er169     Ti170    10.0   .     S
Er169     Ti171    10.0   .     S
Ti170     Ce241    10.0   .     S
Ti170     Ti171    10.0   .     S
Ti171     Ce220    10.0   .     S
Er172     V425    10.0   .     S
Er172     Ti173    10.0   .     S
Er172     Ti174    10.0   .     S
Ti173     Ce250    10.0   .     S
Ti173     Ti174    10.0   .     S
Ti174     Ce181    10.0   .     S
Er175     Ti176    10.0   .     S
Er175     Ti177    10.0   1_554     S
Ti176     Ti177    10.0   1_554     S
Ti177     Er175    10.0   1_556     S
Ti177     Ce184    10.0   .     S
Ti177     Ti176    10.0   1_556     S
Er178     V278    10.0   .     S
Er178     Ti179    10.0   .     S
Er178     Ti180    10.0   .     S
Ti179     Ce252    10.0   .     S
Ti179     Ti180    10.0   .     S
Ti180     Ce183    10.0   .     S
Ce181     Ce183    10.0   .     S
Ce181     Ce186    10.0   .     S
Ce182     Ce183    10.0   .     S
Ce182     Ce184    10.0   .     S
Ce182     Ti189    10.0   .     S
Ce184     Ce185    10.0   .     S
Ce185     Ce186    10.0   .     S
Ce185     Ti203    10.0   .     S
Ce186     Ti200    10.0   .     S
Er187     V277    10.0   .     S
Er187     Ti188    10.0   .     S
Er187     Ti189    10.0   1_554     S
Ti188     Ti189    10.0   1_554     S
Ti189     Er187    10.0   1_556     S
Ti189     Ti188    10.0   1_556     S
Er190     V266    10.0   .     S
Er190     Ti191    10.0   .     S
Er190     Ti192    10.0   1_554     S
Ti191     Ce222    10.0   .     S
Ti191     Ti192    10.0   1_554     S
Ti192     Er190    10.0   1_556     S
Ti192     Ce207    10.0   .     S
Ti192     Ti191    10.0   1_556     S
Er193     V267    10.0   .     S
Er193     Ti194    10.0   .     S
Er193     Ti195    10.0   .     S
Ti194     Ce261    10.0   .     S
Ti194     Ti195    10.0   .     S
Ti195     Ce208    10.0   .     S
Er196     V412    10.0   .     S
Er196     Ti197    10.0   .     S
Er196     Ti198    10.0   .     S
Ti197     Ce260    10.0   .     S
Ti197     Ti198    10.0   .     S
Ti198     Ce210    10.0   .     S
Er199     V414    10.0   .     S
Er199     Ti200    10.0   .     S
Er199     Ti201    10.0   1_545     S
Ti200     Ti201    10.0   1_545     S
Ti201     Er199    10.0   1_565     S
Ti201     Ce209    10.0   .     S
Ti201     Ti200    10.0   1_565     S
Er202     Ti203    10.0   .     S
Er202     Ti204    10.0   1_545     S
Ti203     Ti204    10.0   1_545     S
Ti204     Er202    10.0   1_565     S
Ti204     Ce206    10.0   .     S
Ti204     Ti203    10.0   1_565     S
Ce205     Ce206    10.0   .     S
Ce205     Ce207    10.0   .     S
Ce205     Ti213    10.0   .     S
Ce206     Ce209    10.0   .     S
Ce207     Ce208    10.0   .     S
Ce208     Ce210    10.0   .     S
Ce209     Ce210    10.0   .     S
Er211     Ti212    10.0   .     S
Er211     Ti213    10.0   1_554     S
Ti212     Ce221    10.0   .     S
Ti212     Ti213    10.0   1_554     S
Ti213     Er211    10.0   1_556     S
Ti213     Ti212    10.0   1_556     S
Er214     Ti215    10.0   .     S
Er214     Ti216    10.0   1_545     S
Ti215     Ti216    10.0   1_545     S
Ti216     Er214    10.0   1_565     S
Ti216     Ce223    10.0   .     S
Ti216     Ti215    10.0   1_565     S
Er217     V418    10.0   .     S
Er217     Ti218    10.0   .     S
Er217     Ti219    10.0   1_545     S
Ti218     Ti219    10.0   1_545     S
Ti219     Er217    10.0   1_565     S
Ti219     Ce225    10.0   .     S
Ti219     Ti218    10.0   1_565     S
Ce220     Ce224    10.0   .     S
Ce220     Ce222    10.0   .     S
Ce221     Ce222    10.0   .     S
Ce221     Ce223    10.0   .     S
Ce223     Ce225    10.0   .     S
Ce224     Ce225    10.0   .     S
Ce224     Ti228    10.0   .     S
Er226     V417    10.0   .     S
Er226     Ti227    10.0   .     S
Er226     Ti228    10.0   .     S
Ti227     Ce243    10.0   .     S
Ti227     Ti228    10.0   .     S
Er229     V282    10.0   .     S
Er229     Ti230    10.0   .     S
Er229     Ti231    10.0   1_554     S
Ti230     Ti231    10.0   1_554     S
Ti231     Er229    10.0   1_556     S
Ti231     Ce247    10.0   .     S
Ti231     Ti230    10.0   1_556     S
Er232     Ti233    10.0   .     S
Er232     Ti234    10.0   1_554     S
Ti233     Ce242    10.0   .     S
Ti233     Ti234    10.0   1_554     S
Ti234     Er232    10.0   1_556     S
Ti234     Ce258    10.0   .     S
Ti234     Ti233    10.0   1_556     S
Er235     Ti236    10.0   .     S
Er235     Ti237    10.0   1_545     S
Ti236     Ce251    10.0   .     S
Ti236     Ti237    10.0   1_545     S
Ti237     Er235    10.0   1_565     S
Ti237     Ce257    10.0   .     S
Ti237     Ti236    10.0   1_565     S
Ce238     Ce243    10.0   .     S
Ce238     Ce239    10.0   .     S
Ce238     Ti246    10.0   .     S
Ce239     Ce242    10.0   .     S
Ce240     Ce241    10.0   .     S
Ce240     Ce242    10.0   .     S
Ce240     Ti254    10.0   .     S
Ce241     Ce243    10.0   .     S
Er244     V422    10.0   .     S
Er244     Ti245    10.0   .     S
Er244     Ti246    10.0   1_545     S
Ti245     Ti246    10.0   1_545     S
Ti246     Er244    10.0   1_565     S
Ti246     Ti245    10.0   1_565     S
Ce247     Ce252    10.0   .     S
Ce247     Ce248    10.0   .     S
Ce248     Ce251    10.0   .     S
Ce249     Ce250    10.0   .     S
Ce249     Ce251    10.0   .     S
Ce249     Ti263    10.0   .     S
Ce250     Ce252    10.0   .     S
Er253     V271    10.0   .     S
Er253     Ti254    10.0   .     S
Er253     Ti255    10.0   1_554     S
Ti254     Ti255    10.0   1_554     S
Ti255     Er253    10.0   1_556     S
Ti255     Ce256    10.0   .     S
Ti255     Ti254    10.0   1_556     S
Ce256     Ce261    10.0   .     S
Ce256     Ce258    10.0   .     S
Ce257     Ce258    10.0   .     S
Ce257     Ce259    10.0   .     S
Ce259     Ce260    10.0   .     S
Ce259     Ti264    10.0   .     S
Ce260     Ce261    10.0   .     S
Er262     V426    10.0   .     S
Er262     Ti263    10.0   .     S
Er262     Ti264    10.0   1_545     S
Ti263     Ti264    10.0   1_545     S
Ti264     Er262    10.0   1_565     S
Ti264     Ti263    10.0   1_565     S
V265     V275    10.0   .     S
V265     V266    10.0   .     S
V265     V269    10.0   1_554     S
V265     Er376    10.0   .     S
V266     V272    10.0   .     S
V266     V267    10.0   1_554     S
V267     V271    10.0   1_556     S
V267     V268    10.0   .     S
V267     V266    10.0   1_556     S
V268     V279    10.0   .     S
V268     V270    10.0   .     S
V269     V276    10.0   1_556     S
V269     V270    10.0   .     S
V269     V265    10.0   1_556     S
V269     Er373    10.0   .     S
V270     V280    10.0   .     S
V271     V267    10.0   1_554     S
V271     V285    10.0   .     S
V271     V272    10.0   .     S
V272     V273    10.0   .     S
V273     V283    10.0   .     S
V273     V274    10.0   .     S
V274     V284    10.0   .     S
V274     V275    10.0   .     S
V275     V276    10.0   .     S
V275     Er349    10.0   .     S
V276     V269    10.0   1_554     S
V276     V277    10.0   .     S
V276     Er331    10.0   .     S
V277     V281    10.0   .     S
V277     V278    10.0   1_554     S
V278     V282    10.0   1_556     S
V278     V277    10.0   1_556     S
V278     V280    10.0   .     S
V279     V286    10.0   .     S
V279     V280    10.0   .     S
V281     V284    10.0   .     S
V281     V282    10.0   .     S
V282     V278    10.0   1_554     S
V282     V288    10.0   .     S
V283     V284    10.0   .     S
V283     V287    10.0   .     S
V285     V287    10.0   .     S
V285     V286    10.0   1_554     S
V285     Er361    10.0   .     S
V286     V288    10.0   1_556     S
V286     V285    10.0   1_556     S
V286     Er370    10.0   .     S
V287     V288    10.0   .     S
V287     Er301    10.0   .     S
V288     V286    10.0   1_554     S
V288     Er307    10.0   .     S
Er289     Ti290    10.0   .     S
Er289     Ti291    10.0   1_554     S
Ti290     Ce296    10.0   .     S
Ti290     Ti291    10.0   1_554     S
Ti291     Er289    10.0   1_556     S
Ti291     Ce326    10.0   .     S
Ti291     Ti290    10.0   1_556     S
Er292     Ti293    10.0   .     S
Er292     Ti294    10.0   1_455     S
Ti293     Ce298    10.0   .     S
Ti293     Ti294    10.0   1_455     S
Ti294     Er292    10.0   1_655     S
Ti294     Ce317    10.0   .     S
Ti294     Ti293    10.0   1_655     S
Ce295     Ce300    10.0   .     S
Ce295     Ce296    10.0   .     S
Ce295     Ti308    10.0   .     S
Ce296     Ce298    10.0   .     S
Ce297     Ce299    10.0   .     S
Ce297     Ce298    10.0   .     S
Ce297     Ti323    10.0   .     S
Ce299     Ce300    10.0   .     S
Ce299     Ti305    10.0   .     S
Ce300     Ti302    10.0   .     S
Er301     Ti302    10.0   .     S
Er301     Ti303    10.0   .     S
Ti302     Ti303    10.0   .     S
Ti303     Ce345    10.0   .     S
Er304     V446    10.0   .     S
Er304     Ti305    10.0   .     S
Er304     Ti306    10.0   .     S
Ti305     Ti306    10.0   .     S
Ti306     Ce346    10.0   .     S
Er307     Ti308    10.0   .     S
Er307     Ti309    10.0   1_554     S
Ti308     Ti309    10.0   1_554     S
Ti309     Er307    10.0   1_556     S
Ti309     Ce325    10.0   .     S
Ti309     Ti308    10.0   1_556     S
Er310     Ti311    10.0   .     S
Er310     Ti312    10.0   1_455     S
Ti311     Ce329    10.0   .     S
Ti311     Ti312    10.0   1_455     S
Ti312     Er310    10.0   1_655     S
Ti312     Ce335    10.0   .     S
Ti312     Ti311    10.0   1_655     S
Er313     Ti314    10.0   .     S
Er313     Ti315    10.0   1_554     S
Ti314     Ce320    10.0   .     S
Ti314     Ti315    10.0   1_554     S
Ti315     Er313    10.0   1_556     S
Ti315     Ce336    10.0   .     S
Ti315     Ti314    10.0   1_556     S
Ce316     Ce321    10.0   .     S
Ce316     Ce317    10.0   .     S
Ce316     Ti324    10.0   .     S
Ce317     Ce320    10.0   .     S
Ce318     Ce319    10.0   .     S
Ce318     Ce320    10.0   .     S
Ce318     Ti332    10.0   .     S
Ce319     Ce321    10.0   .     S
Ce319     Ti350    10.0   .     S
Ce321     Ti398    10.0   .     S
Er322     V445    10.0   .     S
Er322     Ti323    10.0   .     S
Er322     Ti324    10.0   1_455     S
Ti323     Ti324    10.0   1_455     S
Ti324     Er322    10.0   1_655     S
Ti324     Ti323    10.0   1_655     S
Ce325     Ce330    10.0   .     S
Ce325     Ce326    10.0   .     S
Ce326     Ce329    10.0   .     S
Ce327     Ce328    10.0   .     S
Ce327     Ce329    10.0   .     S
Ce327     Ti341    10.0   .     S
Ce328     Ce330    10.0   .     S
Ce328     Ti353    10.0   .     S
Ce330     Ti371    10.0   .     S
Er331     Ti332    10.0   .     S
Er331     Ti333    10.0   1_554     S
Ti332     Ti333    10.0   1_554     S
Ti333     Er331    10.0   1_556     S
Ti333     Ce334    10.0   .     S
Ti333     Ti332    10.0   1_556     S
Ce334     Ce339    10.0   .     S
Ce334     Ce336    10.0   .     S
Ce335     Ce336    10.0   .     S
Ce335     Ce337    10.0   .     S
Ce337     Ce338    10.0   .     S
Ce337     Ti342    10.0   .     S
Ce338     Ce339    10.0   .     S
Ce338     Ti383    10.0   .     S
Ce339     Ti374    10.0   .     S
Er340     V450    10.0   .     S
Er340     Ti341    10.0   .     S
Er340     Ti342    10.0   1_455     S
Ti341     Ti342    10.0   1_455     S
Ti342     Er340    10.0   1_655     S
Ti342     Ti341    10.0   1_655     S
Ce343     Ce348    10.0   .     S
Ce343     Ce344    10.0   .     S
Ce343     Ti359    10.0   .     S
Ce344     Ce347    10.0   .     S
Ce344     Ti356    10.0   .     S
Ce345     Ce348    10.0   .     S
Ce345     Ce346    10.0   .     S
Ce346     Ce347    10.0   .     S
Ce347     Ti407    10.0   .     S
Ce348     Ti362    10.0   .     S
Er349     Ti350    10.0   .     S
Er349     Ti351    10.0   .     S
Ti350     Ti351    10.0   .     S
Ti351     Ce400    10.0   .     S
Er352     V449    10.0   .     S
Er352     Ti353    10.0   .     S
Er352     Ti354    10.0   .     S
Ti353     Ti354    10.0   .     S
Ti354     Ce364    10.0   .     S
Er355     Ti356    10.0   .     S
Er355     Ti357    10.0   1_455     S
Ti356     Ti357    10.0   1_455     S
Ti357     Er355    10.0   1_655     S
Ti357     Ce403    10.0   .     S
Ti357     Ti356    10.0   1_655     S
Er358     Ti359    10.0   .     S
Er358     Ti360    10.0   1_554     S
Ti359     Ti360    10.0   1_554     S
Ti360     Er358    10.0   1_556     S
Ti360     Ce367    10.0   .     S
Ti360     Ti359    10.0   1_556     S
Er361     Ti362    10.0   .     S
Er361     Ti363    10.0   1_554     S
Ti362     Ti363    10.0   1_554     S
Ti363     Er361    10.0   1_556     S
Ti363     Ce365    10.0   .     S
Ti363     Ti362    10.0   1_556     S
Ce364     Ce366    10.0   .     S
Ce364     Ce369    10.0   .     S
Ce365     Ce366    10.0   .     S
Ce365     Ce367    10.0   .     S
Ce366     Ti372    10.0   .     S
Ce367     Ce368    10.0   .     S
Ce368     Ce369    10.0   .     S
Ce368     Ti386    10.0   .     S
Ce369     Ti380    10.0   .     S
Er370     Ti371    10.0   .     S
Er370     Ti372    10.0   .     S
Ti371     Ti372    10.0   .     S
Er373     Ti374    10.0   .     S
Er373     Ti375    10.0   .     S
Ti374     Ti375    10.0   .     S
Ti375     Ce393    10.0   .     S
Er376     Ti377    10.0   .     S
Er376     Ti378    10.0   1_554     S
Ti377     Ce402    10.0   .     S
Ti377     Ti378    10.0   1_554     S
Ti378     Er376    10.0   1_556     S
Ti378     Ce392    10.0   .     S
Ti378     Ti377    10.0   1_556     S
Er379     V438    10.0   .     S
Er379     Ti380    10.0   .     S
Er379     Ti381    10.0   1_455     S
Ti380     Ti381    10.0   1_455     S
Ti381     Er379    10.0   1_655     S
Ti381     Ce390    10.0   .     S
Ti381     Ti380    10.0   1_655     S
Er382     V436    10.0   .     S
Er382     Ti383    10.0   .     S
Er382     Ti384    10.0   .     S
Ti383     Ti384    10.0   .     S
Ti384     Ce391    10.0   .     S
Er385     Ti386    10.0   .     S
Er385     Ti387    10.0   1_455     S
Ti386     Ti387    10.0   1_455     S
Ti387     Er385    10.0   1_655     S
Ti387     Ce389    10.0   .     S
Ti387     Ti386    10.0   1_655     S
Ce388     Ce389    10.0   .     S
Ce388     Ce392    10.0   .     S
Ce388     Ti396    10.0   .     S
Ce389     Ce390    10.0   .     S
Ce390     Ce391    10.0   .     S
Ce391     Ce393    10.0   .     S
Ce392     Ce393    10.0   .     S
Er394     Ti395    10.0   .     S
Er394     Ti396    10.0   1_554     S
Ti395     Ce401    10.0   .     S
Ti395     Ti396    10.0   1_554     S
Ti396     Er394    10.0   1_556     S
Ti396     Ti395    10.0   1_556     S
Er397     V441    10.0   .     S
Er397     Ti398    10.0   .     S
Er397     Ti399    10.0   .     S
Ti398     Ti399    10.0   .     S
Ti399     Ce405    10.0   .     S
Ce400     Ce405    10.0   .     S
Ce400     Ce402    10.0   .     S
Ce401     Ce402    10.0   .     S
Ce401     Ce403    10.0   .     S
Ce403     Ce404    10.0   .     S
Ce404     Ce405    10.0   .     S
Ce404     Ti408    10.0   .     S
Er406     V442    10.0   .     S
Er406     Ti407    10.0   .     S
Er406     Ti408    10.0   1_455     S
Ti407     Ti408    10.0   1_455     S
Ti408     Er406    10.0   1_655     S
Ti408     Ti407    10.0   1_655     S
V409     V419    10.0   1_565     S
V409     V410    10.0   .     S
V409     V413    10.0   1_565     S
V409     Er508    10.0   .     S
V410     V415    10.0   .     S
V410     V411    10.0   .     S
V411     V416    10.0   .     S
V411     V412    10.0   .     S
V412     V426    10.0   1_565     S
V412     V414    10.0   1_565     S
V413     V420    10.0   .     S
V413     V414    10.0   .     S
V413     V409    10.0   1_545     S
V413     Er505    10.0   .     S
V414     V425    10.0   .     S
V414     V412    10.0   1_545     S
V415     V417    10.0   .     S
V415     V416    10.0   .     S
V416     V429    10.0   .     S
V417     V422    10.0   1_565     S
V417     V418    10.0   1_565     S
V418     V421    10.0   .     S
V418     V417    10.0   1_545     S
V418     V419    10.0   .     S
V419     V409    10.0   1_545     S
V419     V420    10.0   .     S
V419     Er565    10.0   .     S
V420     V423    10.0   .     S
V420     Er481    10.0   .     S
V421     V428    10.0   .     S
V421     V422    10.0   .     S
V422     V417    10.0   1_545     S
V422     V431    10.0   .     S
V423     V428    10.0   .     S
V423     V424    10.0   .     S
V424     V427    10.0   .     S
V424     V425    10.0   .     S
V425     V426    10.0   .     S
V426     V412    10.0   1_545     S
V426     V430    10.0   .     S
V427     V428    10.0   .     S
V427     V432    10.0   .     S
V429     V431    10.0   1_565     S
V429     V430    10.0   1_565     S
V429     Er529    10.0   .     S
V430     V432    10.0   .     S
V430     V429    10.0   1_545     S
V430     Er538    10.0   .     S
V431     V429    10.0   1_545     S
V431     V432    10.0   .     S
V431     Er541    10.0   .     S
V432     Er469    10.0   .     S
V433     V439    10.0   .     S
V433     V434    10.0   .     S
V433     V435    10.0   .     S
V434     V443    10.0   1_655     S
V434     V437    10.0   1_655     S
V434     Er526    10.0   .     S
V435     V440    10.0   .     S
V435     V436    10.0   .     S
V436     V450    10.0   1_655     S
V436     V438    10.0   1_655     S
V437     V444    10.0   .     S
V437     V438    10.0   .     S
V437     V434    10.0   1_455     S
V437     Er511    10.0   .     S
V438     V449    10.0   .     S
V438     V436    10.0   1_455     S
V439     V441    10.0   .     S
V439     V440    10.0   .     S
V440     V453    10.0   .     S
V441     V445    10.0   1_655     S
V441     V442    10.0   1_655     S
V442     V446    10.0   .     S
V442     V441    10.0   1_455     S
V442     V443    10.0   .     S
V443     V434    10.0   1_455     S
V443     V444    10.0   .     S
V443     Er574    10.0   .     S
V444     V447    10.0   .     S
V444     Er484    10.0   .     S
V445     V441    10.0   1_455     S
V445     V446    10.0   .     S
V445     V455    10.0   .     S
V446     V452    10.0   .     S
V447     V452    10.0   .     S
V447     V448    10.0   .     S
V448     V451    10.0   .     S
V448     V449    10.0   .     S
V449     V450    10.0   .     S
V450     V436    10.0   1_455     S
V450     V454    10.0   .     S
V451     V452    10.0   .     S
V451     V456    10.0   .     S
V453     V455    10.0   1_655     S
V453     V454    10.0   1_655     S
V453     Er502    10.0   .     S
V454     V456    10.0   .     S
V454     V453    10.0   1_455     S
V454     Er493    10.0   .     S
V455     V453    10.0   1_455     S
V455     V456    10.0   .     S
V455     Er544    10.0   .     S
V456     Er472    10.0   .     S
Er457     Ti458    10.0   .     S
Er457     Ti459    10.0   1_455     S
Ti458     Ce466    10.0   .     S
Ti458     Ti459    10.0   1_455     S
Ti459     Er457    10.0   1_655     S
Ti459     Ce551    10.0   .     S
Ti459     Ti458    10.0   1_655     S
Er460     Ti461    10.0   .     S
Er460     Ti462    10.0   1_545     S
Ti461     Ce464    10.0   .     S
Ti461     Ti462    10.0   1_545     S
Ti462     Er460    10.0   1_565     S
Ti462     Ce557    10.0   .     S
Ti462     Ti461    10.0   1_565     S
Ce463     Ce468    10.0   .     S
Ce463     Ce464    10.0   .     S
Ce463     Ti542    10.0   .     S
Ce464     Ce466    10.0   .     S
Ce465     Ce467    10.0   .     S
Ce465     Ce466    10.0   .     S
Ce465     Ti545    10.0   .     S
Ce467     Ce468    10.0   .     S
Ce467     Ti473    10.0   .     S
Ce468     Ti470    10.0   .     S
Er469     Ti470    10.0   .     S
Er469     Ti471    10.0   .     S
Ti470     Ti471    10.0   .     S
Ti471     Ce477    10.0   .     S
Er472     Ti473    10.0   .     S
Er472     Ti474    10.0   .     S
Ti473     Ti474    10.0   .     S
Ti474     Ce478    10.0   .     S
Ce475     Ce479    10.0   .     S
Ce475     Ce476    10.0   .     S
Ce475     Ti491    10.0   .     S
Ce476     Ce480    10.0   .     S
Ce476     Ti488    10.0   .     S
Ce477     Ce480    10.0   .     S
Ce477     Ce478    10.0   .     S
Ce478     Ce479    10.0   .     S
Ce479     Ti494    10.0   .     S
Ce480     Ti539    10.0   .     S
Er481     Ti482    10.0   .     S
Er481     Ti483    10.0   .     S
Ti482     Ce553    10.0   .     S
Ti482     Ti483    10.0   .     S
Ti483     Ce496    10.0   .     S
Er484     Ti485    10.0   .     S
Er484     Ti486    10.0   .     S
Ti485     Ce559    10.0   .     S
Ti485     Ti486    10.0   .     S
Ti486     Ce532    10.0   .     S
Er487     Ti488    10.0   .     S
Er487     Ti489    10.0   1_545     S
Ti488     Ti489    10.0   1_545     S
Ti489     Er487    10.0   1_565     S
Ti489     Ce535    10.0   .     S
Ti489     Ti488    10.0   1_565     S
Er490     Ti491    10.0   .     S
Er490     Ti492    10.0   1_455     S
Ti491     Ti492    10.0   1_455     S
Ti492     Er490    10.0   1_655     S
Ti492     Ce499    10.0   .     S
Ti492     Ti491    10.0   1_655     S
Er493     Ti494    10.0   .     S
Er493     Ti495    10.0   1_455     S
Ti494     Ti495    10.0   1_455     S
Ti495     Er493    10.0   1_655     S
Ti495     Ce497    10.0   .     S
Ti495     Ti494    10.0   1_655     S
Ce496     Ce498    10.0   .     S
Ce496     Ce501    10.0   .     S
Ce497     Ce498    10.0   .     S
Ce497     Ce499    10.0   .     S
Ce498     Ti504    10.0   .     S
Ce499     Ce500    10.0   .     S
Ce500     Ce501    10.0   .     S
Ce500     Ti518    10.0   .     S
Ce501     Ti506    10.0   .     S
Er502     Ti503    10.0   .     S
Er502     Ti504    10.0   .     S
Ti503     Ce555    10.0   .     S
Ti503     Ti504    10.0   .     S
Er505     Ti506    10.0   .     S
Er505     Ti507    10.0   1_545     S
Ti506     Ti507    10.0   1_545     S
Ti507     Er505    10.0   1_565     S
Ti507     Ce524    10.0   .     S
Ti507     Ti506    10.0   1_565     S
Er508     Ti509    10.0   .     S
Er508     Ti510    10.0   .     S
Ti509     Ce570    10.0   .     S
Ti509     Ti510    10.0   .     S
Ti510     Ce525    10.0   .     S
Er511     Ti512    10.0   .     S
Er511     Ti513    10.0   1_455     S
Ti512     Ce537    10.0   .     S
Ti512     Ti513    10.0   1_455     S
Ti513     Er511    10.0   1_655     S
Ti513     Ce521    10.0   .     S
Ti513     Ti512    10.0   1_655     S
Er514     Ti515    10.0   .     S
Er514     Ti516    10.0   1_455     S
Ti515     Ce536    10.0   .     S
Ti515     Ti516    10.0   1_455     S
Ti516     Er514    10.0   1_655     S
Ti516     Ce522    10.0   .     S
Ti516     Ti515    10.0   1_655     S
Er517     Ti518    10.0   .     S
Er517     Ti519    10.0   1_545     S
Ti518     Ti519    10.0   1_545     S
Ti519     Er517    10.0   1_565     S
Ti519     Ce523    10.0   .     S
Ti519     Ti518    10.0   1_565     S
Ce520     Ce521    10.0   .     S
Ce520     Ce525    10.0   .     S
Ce520     Ti528    10.0   .     S
Ce521     Ce522    10.0   .     S
Ce522     Ce523    10.0   .     S
Ce523     Ce524    10.0   .     S
Ce524     Ce525    10.0   .     S
Er526     Ti527    10.0   .     S
Er526     Ti528    10.0   .     S
Ti527     Ce569    10.0   .     S
Ti527     Ti528    10.0   .     S
Er529     Ti530    10.0   .     S
Er529     Ti531    10.0   .     S
Ti530     Ce561    10.0   .     S
Ti530     Ti531    10.0   .     S
Ti531     Ce534    10.0   .     S
Ce532     Ce534    10.0   .     S
Ce532     Ce537    10.0   .     S
Ce533     Ce534    10.0   .     S
Ce533     Ce535    10.0   .     S
Ce533     Ti540    10.0   .     S
Ce535     Ce536    10.0   .     S
Ce536     Ce537    10.0   .     S
Er538     Ti539    10.0   .     S
Er538     Ti540    10.0   1_545     S
Ti539     Ti540    10.0   1_545     S
Ti540     Er538    10.0   1_565     S
Ti540     Ti539    10.0   1_565     S
Er541     Ti542    10.0   .     S
Er541     Ti543    10.0   1_545     S
Ti542     Ti543    10.0   1_545     S
Ti543     Er541    10.0   1_565     S
Ti543     Ce556    10.0   .     S
Ti543     Ti542    10.0   1_565     S
Er544     Ti545    10.0   .     S
Er544     Ti546    10.0   1_455     S
Ti545     Ti546    10.0   1_455     S
Ti546     Er544    10.0   1_655     S
Ti546     Ce550    10.0   .     S
Ti546     Ti545    10.0   1_655     S
Er547     Ti548    10.0   .     S
Er547     Ti549    10.0   1_455     S
Ti548     Ce560    10.0   .     S
Ti548     Ti549    10.0   1_455     S
Ti549     Er547    10.0   1_655     S
Ti549     Ce573    10.0   .     S
Ti549     Ti548    10.0   1_655     S
Ce550     Ce555    10.0   .     S
Ce550     Ce551    10.0   .     S
Ce551     Ce554    10.0   .     S
Ce552     Ce553    10.0   .     S
Ce552     Ce554    10.0   .     S
Ce552     Ti566    10.0   .     S
Ce553     Ce555    10.0   .     S
Ce554     Ti563    10.0   .     S
Ce556     Ce561    10.0   .     S
Ce556     Ce557    10.0   .     S
Ce557     Ce560    10.0   .     S
Ce558     Ce559    10.0   .     S
Ce558     Ce560    10.0   .     S
Ce558     Ti575    10.0   .     S
Ce559     Ce561    10.0   .     S
Er562     Ti563    10.0   .     S
Er562     Ti564    10.0   1_545     S
Ti563     Ti564    10.0   1_545     S
Ti564     Er562    10.0   1_565     S
Ti564     Ce572    10.0   .     S
Ti564     Ti563    10.0   1_565     S
Er565     Ti566    10.0   .     S
Er565     Ti567    10.0   1_545     S
Ti566     Ti567    10.0   1_545     S
Ti567     Er565    10.0   1_565     S
Ti567     Ce568    10.0   .     S
Ti567     Ti566    10.0   1_565     S
Ce568     Ce570    10.0   .     S
Ce568     Ce572    10.0   .     S
Ce569     Ce570    10.0   .     S
Ce569     Ce571    10.0   .     S
Ce571     Ce573    10.0   .     S
Ce571     Ti576    10.0   .     S
Ce572     Ce573    10.0   .     S
Er574     Ti575    10.0   .     S
Er574     Ti576    10.0   1_455     S
Ti575     Ti576    10.0   1_455     S
Ti576     Er574    10.0   1_655     S
Ti576     Ti575    10.0   1_655     S
