data_dpba
_audit_creation_date              2020-02-02
_audit_creation_method            'Pymatgen'
_symmetry_space_group_name_H-M    'P1'
_symmetry_Int_Tables_number       1
loop_
_symmetry_equiv_pos_as_xyz
  x,y,z
_cell_length_a                    141.4399
_cell_length_b                    141.4399
_cell_length_c                    141.4399
_cell_angle_alpha                 90.0
_cell_angle_beta                 90.0
_cell_angle_gamma                 90.0
loop_
_atom_site_label
_atom_site_type_symbol
_atom_site_fract_x
_atom_site_fract_y
_atom_site_fract_z
Er1     Er     0.8288   0.6712   0.75
Er2     Er     0.75   0.8288   0.6712
Ti3     Ti     0.7788   0.7212   0.75
Ti4     Ti     0.7212   0.75   0.7788
Ti5     Ti     0.75   0.7788   0.7212
Er6     Er     0.6712   0.75   0.8288
V7     V     0.7502   0.847   0.603
V8     V     0.847   0.603   0.7502
V9     V     0.603   0.7502   0.847
V10     V     0.897   0.653   0.7498
V11     V     0.7498   0.897   0.653
V12     V     0.653   0.7498   0.897
Er13     Er     0.25   0.1712   0.3288
Er14     Er     0.1712   0.3288   0.25
Er15     Er     0.3288   0.25   0.1712
Ti16     Ti     0.25   0.2212   0.2788
Ti17     Ti     0.2212   0.2788   0.25
Ti18     Ti     0.2788   0.25   0.2212
V19     V     0.397   0.2498   0.153
V20     V     0.103   0.347   0.2502
V21     V     0.2502   0.103   0.347
V22     V     0.347   0.2502   0.103
V23     V     0.2498   0.153   0.397
V24     V     0.153   0.397   0.2498
Er25     Er     0.3288   0.6712   0.25
Er26     Er     0.1712   0.75   0.3288
Er27     Er     0.25   0.8288   0.1712
Ti28     Ti     0.25   0.7788   0.2212
Ti29     Ti     0.2788   0.7212   0.25
Ti30     Ti     0.2212   0.75   0.2788
V31     V     0.2502   0.847   0.103
V32     V     0.103   0.7502   0.347
V33     V     0.347   0.603   0.2502
V34     V     0.397   0.653   0.2498
V35     V     0.153   0.7498   0.397
V36     V     0.2498   0.897   0.153
Er37     Er     0.0788   0.75   0.9212
Er38     Er     0.9212   0.6712   0.0
Ti39     Ti     0.0288   0.75   0.9712
Ti40     Ti     0.9712   0.7212   0.0
Ti41     Ti     0.0   0.7788   0.0288
Er42     Er     0.0   0.8288   0.0788
V43     V     0.903   0.603   0.9998
V44     V     0.853   0.653   0.0002
V45     V     0.097   0.7498   0.853
V46     V     0.147   0.7502   0.903
V47     V     0.9998   0.847   0.147
V48     V     0.0002   0.897   0.097
Ce49     Ce     0.201   0.801   0.0007
Ce50     Ce     0.2507   0.799   0.051
Ce51     Ce     0.301   0.7493   0.0491
Ce52     Ce     0.299   0.699   0.9993
Ce53     Ce     0.199   0.7507   0.951
Ce54     Ce     0.2493   0.701   0.949
Ce55     Ce     0.7493   0.201   0.949
Ce56     Ce     0.699   0.2507   0.951
Ce57     Ce     0.701   0.301   0.0007
Ce58     Ce     0.799   0.199   0.9993
Ce59     Ce     0.7507   0.299   0.051
Ce60     Ce     0.801   0.2493   0.0491
Er61     Er     0.5788   0.25   0.9212
Er62     Er     0.4212   0.1712   0.0
Er63     Er     0.5   0.3288   0.0788
Ti64     Ti     0.5288   0.25   0.9712
Ti65     Ti     0.4712   0.2212   0.0
Ti66     Ti     0.5   0.2788   0.0288
V67     V     0.403   0.103   0.9998
V68     V     0.647   0.2502   0.903
V69     V     0.597   0.2498   0.853
V70     V     0.353   0.153   0.0002
V71     V     0.5002   0.397   0.097
V72     V     0.4998   0.347   0.147
Ce73     Ce     0.0491   0.449   0.0007
Ce74     Ce     0.9993   0.451   0.051
Ce75     Ce     0.951   0.551   0.9993
Ce76     Ce     0.949   0.5007   0.0491
Ce77     Ce     0.0007   0.549   0.949
Ce78     Ce     0.051   0.4993   0.951
Ce79     Ce     0.799   0.699   0.4993
Ce80     Ce     0.7493   0.701   0.449
Ce81     Ce     0.801   0.7493   0.549
Ce82     Ce     0.7507   0.799   0.551
Ce83     Ce     0.699   0.7507   0.451
Ce84     Ce     0.701   0.801   0.5007
Er85     Er     0.9212   0.75   0.5788
Er86     Er     0.0   0.6712   0.4212
Ti87     Ti     0.9712   0.75   0.5288
Ti88     Ti     0.0288   0.7788   0.5
Ti89     Ti     0.0   0.7212   0.4712
Er90     Er     0.0788   0.8288   0.5
V91     V     0.903   0.7502   0.647
V92     V     0.853   0.7498   0.597
V93     V     0.097   0.897   0.5002
V94     V     0.0002   0.653   0.353
V95     V     0.9998   0.603   0.403
V96     V     0.147   0.847   0.4998
Ce97     Ce     0.949   0.701   0.7493
Ce98     Ce     0.951   0.7507   0.699
Ce99     Ce     0.0007   0.801   0.701
Ce100     Ce     0.051   0.799   0.7507
Ce101     Ce     0.0491   0.7493   0.801
Ce102     Ce     0.9993   0.699   0.799
Er103     Er     0.9212   0.1712   0.5
Er104     Er     0.0   0.3288   0.5788
Ti105     Ti     0.0288   0.25   0.4712
Ti106     Ti     0.9712   0.2212   0.5
Ti107     Ti     0.0   0.2788   0.5288
Er108     Er     0.0788   0.25   0.4212
V109     V     0.097   0.2498   0.353
V110     V     0.903   0.103   0.4998
V111     V     0.9998   0.347   0.647
V112     V     0.853   0.153   0.5002
V113     V     0.0002   0.397   0.597
V114     V     0.147   0.2502   0.403
Er115     Er     0.0   0.5788   0.8288
Er116     Er     0.9212   0.5   0.6712
Er117     Er     0.0788   0.4212   0.75
Ti118     Ti     0.0288   0.4712   0.75
Ti119     Ti     0.0   0.5288   0.7788
Ti120     Ti     0.9712   0.5   0.7212
V121     V     0.9998   0.647   0.847
V122     V     0.853   0.5002   0.653
V123     V     0.097   0.353   0.7498
V124     V     0.903   0.4998   0.603
V125     V     0.0002   0.597   0.897
V126     V     0.1471   0.403   0.7502
Ce127     Ce     0.0007   0.449   0.549
Ce128     Ce     0.051   0.451   0.4993
Ce129     Ce     0.9993   0.551   0.451
Ce130     Ce     0.0491   0.5007   0.449
Ce131     Ce     0.949   0.549   0.5007
Ce132     Ce     0.951   0.4993   0.551
Er133     Er     0.9212   0.0788   0.75
Er134     Er     0.0   0.9212   0.6712
Ti135     Ti     0.9712   0.0288   0.75
Ti136     Ti     0.0   0.9712   0.7212
Ti137     Ti     0.0288   0.0   0.7788
Er138     Er     0.0788   0.0   0.8288
V139     V     0.0002   0.853   0.653
V140     V     0.853   0.097   0.7498
V141     V     0.903   0.147   0.7502
V142     V     0.147   0.9998   0.847
V143     V     0.097   0.0002   0.897
V144     V     0.9998   0.903   0.603
Ce145     Ce     0.951   0.199   0.7507
Ce146     Ce     0.0007   0.201   0.801
Ce147     Ce     0.051   0.2507   0.799
Ce148     Ce     0.949   0.2493   0.701
Ce149     Ce     0.0491   0.301   0.7493
Ce150     Ce     0.9993   0.299   0.699
Er151     Er     0.75   0.4212   0.5788
Er152     Er     0.8288   0.5788   0.5
Er153     Er     0.6712   0.5   0.4212
Ti154     Ti     0.75   0.4712   0.5288
Ti155     Ti     0.7788   0.5288   0.5
Ti156     Ti     0.7212   0.5   0.4712
V157     V     0.7498   0.353   0.597
V158     V     0.603   0.4998   0.403
V159     V     0.7502   0.403   0.647
V160     V     0.847   0.647   0.4998
V161     V     0.653   0.5002   0.353
V162     V     0.897   0.597   0.5002
Er163     Er     0.5   0.6712   0.9212
Er164     Er     0.5788   0.8288   0.0
Er165     Er     0.4212   0.75   0.0788
Ti166     Ti     0.4712   0.75   0.0288
Ti167     Ti     0.5   0.7212   0.9712
Ti168     Ti     0.5288   0.7788   0.0
V169     V     0.647   0.847   0.9998
V170     V     0.5002   0.653   0.853
V171     V     0.597   0.897   0.0002
V172     V     0.353   0.7498   0.097
V173     V     0.4998   0.603   0.903
V174     V     0.403   0.7502   0.1471
Er175     Er     0.75   0.5788   0.9212
Er176     Er     0.6712   0.4212   0.0
Ti177     Ti     0.7788   0.5   0.0288
Ti178     Ti     0.75   0.5288   0.9712
Ti179     Ti     0.7212   0.4712   0.0
Er180     Er     0.8288   0.5   0.0788
V181     V     0.897   0.5002   0.097
V182     V     0.7498   0.597   0.853
V183     V     0.7502   0.647   0.903
V184     V     0.653   0.353   0.0002
V185     V     0.603   0.403   0.9998
V186     V     0.847   0.4998   0.147
Ce187     Ce     0.701   0.7493   0.949
Ce188     Ce     0.7507   0.699   0.951
Ce189     Ce     0.801   0.701   0.0007
Ce190     Ce     0.799   0.7507   0.051
Ce191     Ce     0.699   0.799   0.9993
Ce192     Ce     0.7493   0.801   0.0491
Ce193     Ce     0.201   0.949   0.7493
Ce194     Ce     0.2507   0.951   0.699
Ce195     Ce     0.301   0.0007   0.701
Ce196     Ce     0.199   0.9993   0.799
Ce197     Ce     0.299   0.051   0.7507
Ce198     Ce     0.2493   0.0491   0.801
Er199     Er     0.25   0.9212   0.5788
Er200     Er     0.1712   0.0   0.4212
Er201     Er     0.3288   0.0788   0.5
Ti202     Ti     0.25   0.9712   0.5288
Ti203     Ti     0.2212   0.0   0.4712
Ti204     Ti     0.2788   0.0288   0.5
V205     V     0.103   0.9998   0.403
V206     V     0.2502   0.903   0.647
V207     V     0.2498   0.853   0.597
V208     V     0.153   0.0002   0.353
V209     V     0.397   0.097   0.5002
V210     V     0.347   0.147   0.4998
Ce211     Ce     0.2493   0.549   0.301
Ce212     Ce     0.2507   0.451   0.199
Ce213     Ce     0.299   0.551   0.2507
Ce214     Ce     0.301   0.5007   0.201
Ce215     Ce     0.199   0.4993   0.299
Ce216     Ce     0.201   0.449   0.2493
Er217     Er     0.25   0.5788   0.4212
Er218     Er     0.3288   0.5   0.5788
Ti219     Ti     0.25   0.5288   0.4712
Ti220     Ti     0.2788   0.5   0.5288
Ti221     Ti     0.2212   0.4712   0.5
Er222     Er     0.1712   0.4212   0.5
V223     V     0.2502   0.647   0.403
V224     V     0.397   0.5002   0.597
V225     V     0.2498   0.597   0.353
V226     V     0.153   0.353   0.5002
V227     V     0.103   0.403   0.4998
V228     V     0.347   0.4998   0.647
Ce229     Ce     0.199   0.799   0.4993
Ce230     Ce     0.2507   0.699   0.451
Ce231     Ce     0.201   0.7493   0.449
Ce232     Ce     0.301   0.701   0.5007
Ce233     Ce     0.299   0.7507   0.551
Ce234     Ce     0.2493   0.801   0.549
Er235     Er     0.3288   0.75   0.6712
Er236     Er     0.1712   0.8288   0.75
Ti237     Ti     0.25   0.7212   0.7788
Ti238     Ti     0.2212   0.7788   0.75
Ti239     Ti     0.2788   0.75   0.7212
Er240     Er     0.25   0.6712   0.8288
V241     V     0.2498   0.653   0.897
V242     V     0.397   0.7498   0.653
V243     V     0.153   0.897   0.7498
V244     V     0.103   0.847   0.7502
V245     V     0.2502   0.603   0.847
V246     V     0.347   0.7502   0.603
Ce247     Ce     0.299   0.4993   0.699
Ce248     Ce     0.2493   0.449   0.701
Ce249     Ce     0.301   0.549   0.7493
Ce250     Ce     0.199   0.451   0.7507
Ce251     Ce     0.2507   0.551   0.799
Ce252     Ce     0.201   0.5007   0.801
Ce253     Ce     0.449   0.0007   0.0491
Ce254     Ce     0.451   0.051   0.9993
Ce255     Ce     0.551   0.9993   0.951
Ce256     Ce     0.5007   0.0491   0.949
Ce257     Ce     0.549   0.949   0.0007
Ce258     Ce     0.4993   0.951   0.051
Er259     Er     0.1712   0.5   0.9212
Er260     Er     0.3288   0.5788   0.0
Ti261     Ti     0.2212   0.5   0.9712
Ti262     Ti     0.25   0.4712   0.0288
Ti263     Ti     0.2788   0.5288   0.0
Er264     Er     0.25   0.4212   0.0788
V265     V     0.2498   0.353   0.097
V266     V     0.103   0.4998   0.903
V267     V     0.347   0.647   0.9998
V268     V     0.2502   0.403   0.147
V269     V     0.397   0.597   0.0002
V270     V     0.153   0.5002   0.853
Ce271     Ce     0.449   0.549   0.0007
Ce272     Ce     0.551   0.451   0.9993
Ce273     Ce     0.451   0.4993   0.051
Ce274     Ce     0.5007   0.449   0.0491
Ce275     Ce     0.549   0.5007   0.949
Ce276     Ce     0.4993   0.551   0.951
Ce277     Ce     0.949   0.0007   0.549
Ce278     Ce     0.951   0.051   0.4993
Ce279     Ce     0.0491   0.949   0.5007
Ce280     Ce     0.9993   0.951   0.551
Ce281     Ce     0.0007   0.0491   0.449
Ce282     Ce     0.051   0.9993   0.451
Er283     Er     0.6712   0.9212   0.5
Er284     Er     0.8288   0.0   0.5788
Er285     Er     0.75   0.0788   0.4212
Ti286     Ti     0.7212   0.9712   0.5
Ti287     Ti     0.7788   0.0   0.5288
Ti288     Ti     0.75   0.0288   0.4712
V289     V     0.653   0.853   0.5002
V290     V     0.897   0.0002   0.597
V291     V     0.847   0.9998   0.647
V292     V     0.7498   0.097   0.353
V293     V     0.603   0.903   0.4998
V294     V     0.7502   0.1471   0.403
Er295     Er     0.5788   0.9212   0.75
Ti296     Ti     0.5   0.0288   0.7788
Ti297     Ti     0.5288   0.9712   0.75
Ti298     Ti     0.4712   0.0   0.7212
Er299     Er     0.5   0.0788   0.8288
Er300     Er     0.4212   0.0   0.6712
V301     V     0.597   0.853   0.7498
V302     V     0.647   0.903   0.7502
V303     V     0.353   0.0002   0.653
V304     V     0.403   0.9998   0.603
V305     V     0.5002   0.097   0.897
V306     V     0.4998   0.147   0.847
Ce307     Ce     0.7493   0.949   0.701
Ce308     Ce     0.699   0.951   0.7507
Ce309     Ce     0.701   0.0007   0.801
Ce310     Ce     0.7507   0.051   0.799
Ce311     Ce     0.801   0.0491   0.7493
Ce312     Ce     0.799   0.9993   0.699
Er313     Er     0.5   0.9212   0.1712
Er314     Er     0.5788   0.0   0.3288
Ti315     Ti     0.4712   0.0288   0.25
Ti316     Ti     0.5   0.9712   0.2212
Ti317     Ti     0.5288   0.0   0.2788
Er318     Er     0.4212   0.0788   0.25
V319     V     0.353   0.097   0.2498
V320     V     0.647   0.9998   0.347
V321     V     0.4998   0.903   0.103
V322     V     0.5002   0.853   0.153
V323     V     0.597   0.0002   0.397
V324     V     0.403   0.147   0.2502
Ce325     Ce     0.549   0.0007   0.449
Ce326     Ce     0.4993   0.051   0.451
Ce327     Ce     0.451   0.9993   0.551
Ce328     Ce     0.449   0.0491   0.5007
Ce329     Ce     0.5007   0.949   0.549
Ce330     Ce     0.551   0.951   0.4993
Er331     Er     0.75   0.9212   0.0788
Er332     Er     0.6712   0.0   0.9212
Ti333     Ti     0.75   0.9712   0.0288
Ti334     Ti     0.7212   0.0   0.9712
Ti335     Ti     0.7788   0.0288   0.0
Er336     Er     0.8288   0.0788   0.0
V337     V     0.7498   0.853   0.097
V338     V     0.603   0.9998   0.903
V339     V     0.7502   0.903   0.147
V340     V     0.847   0.147   0.9998
V341     V     0.897   0.097   0.0002
V342     V     0.653   0.0002   0.853
Ce343     Ce     0.7507   0.951   0.199
Ce344     Ce     0.801   0.0007   0.201
Ce345     Ce     0.799   0.051   0.2507
Ce346     Ce     0.701   0.949   0.2493
Ce347     Ce     0.7493   0.0491   0.301
Ce348     Ce     0.699   0.9993   0.299
Ce349     Ce     0.701   0.449   0.7493
Ce350     Ce     0.799   0.551   0.7507
Ce351     Ce     0.7507   0.451   0.699
Ce352     Ce     0.801   0.5007   0.701
Ce353     Ce     0.699   0.4993   0.799
Ce354     Ce     0.7493   0.549   0.801
Er355     Er     0.4212   0.5788   0.75
Er356     Er     0.5788   0.5   0.8288
Er357     Er     0.5   0.4212   0.6712
Ti358     Ti     0.4712   0.5288   0.75
Ti359     Ti     0.5288   0.5   0.7788
Ti360     Ti     0.5   0.4712   0.7212
V361     V     0.353   0.597   0.7498
V362     V     0.403   0.647   0.7502
V363     V     0.647   0.4998   0.847
V364     V     0.5002   0.353   0.653
V365     V     0.4998   0.403   0.603
V366     V     0.597   0.5002   0.897
Er367     Er     0.5788   0.75   0.4212
Er368     Er     0.5   0.8288   0.5788
Er369     Er     0.4212   0.6712   0.5
Ti370     Ti     0.5288   0.75   0.4712
Ti371     Ti     0.5   0.7788   0.5288
Ti372     Ti     0.4712   0.7212   0.5
V373     V     0.597   0.7498   0.353
V374     V     0.647   0.7502   0.403
V375     V     0.403   0.603   0.4998
V376     V     0.4998   0.847   0.647
V377     V     0.353   0.653   0.5002
V378     V     0.5002   0.897   0.597
Ce379     Ce     0.449   0.7493   0.701
Ce380     Ce     0.551   0.7507   0.799
Ce381     Ce     0.451   0.699   0.7507
Ce382     Ce     0.5007   0.701   0.801
Ce383     Ce     0.4993   0.799   0.699
Ce384     Ce     0.549   0.801   0.7493
Er385     Er     0.3288   0.1712   0.75
Er386     Er     0.25   0.3288   0.6712
Ti387     Ti     0.2212   0.25   0.7788
Ti388     Ti     0.25   0.2788   0.7212
Ti389     Ti     0.2788   0.2212   0.75
Er390     Er     0.1712   0.25   0.8288
V391     V     0.347   0.103   0.7502
V392     V     0.103   0.2502   0.847
V393     V     0.2502   0.347   0.603
V394     V     0.397   0.153   0.7498
V395     V     0.2498   0.397   0.653
V396     V     0.153   0.2498   0.897
Er397     Er     0.6712   0.3288   0.75
Er398     Er     0.8288   0.25   0.6712
Ti399     Ti     0.7788   0.25   0.7212
Ti400     Ti     0.75   0.2212   0.7788
Ti401     Ti     0.7212   0.2788   0.75
Er402     Er     0.75   0.1712   0.8288
V403     V     0.7498   0.153   0.897
V404     V     0.7502   0.103   0.847
V405     V     0.847   0.2502   0.603
V406     V     0.897   0.2498   0.653
V407     V     0.603   0.347   0.7502
V408     V     0.653   0.397   0.7498
Ce409     Ce     0.4993   0.199   0.799
Ce410     Ce     0.549   0.2493   0.801
Ce411     Ce     0.449   0.2009   0.7493
Ce412     Ce     0.551   0.2991   0.7507
Ce413     Ce     0.451   0.2507   0.699
Ce414     Ce     0.5007   0.301   0.701
Ce415     Ce     0.7507   0.199   0.451
Ce416     Ce     0.801   0.201   0.5007
Ce417     Ce     0.799   0.2507   0.551
Ce418     Ce     0.7493   0.301   0.549
Ce419     Ce     0.699   0.299   0.4993
Ce420     Ce     0.701   0.2493   0.449
Er421     Er     0.4212   0.25   0.5788
Er422     Er     0.5788   0.3288   0.5
Ti423     Ti     0.4712   0.25   0.5288
Ti424     Ti     0.5288   0.2788   0.5
Ti425     Ti     0.5   0.2212   0.4712
Er426     Er     0.5   0.1712   0.4212
V427     V     0.403   0.2502   0.647
V428     V     0.647   0.347   0.4998
V429     V     0.597   0.397   0.5002
V430     V     0.353   0.2498   0.597
V431     V     0.5002   0.153   0.353
V432     V     0.4998   0.103   0.403
Ce433     Ce     0.301   0.2493   0.549
Ce434     Ce     0.299   0.199   0.4993
Ce435     Ce     0.2493   0.201   0.449
Ce436     Ce     0.199   0.2507   0.451
Ce437     Ce     0.2507   0.299   0.551
Ce438     Ce     0.201   0.301   0.5007
Ce439     Ce     0.551   0.4993   0.451
Ce440     Ce     0.549   0.449   0.5007
Ce441     Ce     0.451   0.551   0.4993
Ce442     Ce     0.5007   0.549   0.449
Ce443     Ce     0.4993   0.451   0.551
Ce444     Ce     0.449   0.5007   0.549
Er445     Er     0.9212   0.5788   0.25
Er446     Er     0.0   0.4212   0.1712
Er447     Er     0.0788   0.5   0.3288
Ti448     Ti     0.9712   0.5288   0.25
Ti449     Ti     0.0288   0.5   0.2788
Ti450     Ti     0.0   0.4712   0.2212
V451     V     0.9998   0.403   0.103
V452     V     0.853   0.597   0.2498
V453     V     0.903   0.647   0.2502
V454     V     0.147   0.4998   0.347
V455     V     0.097   0.5002   0.397
V456     V     0.0002   0.353   0.153
Ce457     Ce     0.949   0.7493   0.201
Ce458     Ce     0.951   0.699   0.2507
Ce459     Ce     0.0007   0.701   0.301
Ce460     Ce     0.051   0.7507   0.299
Ce461     Ce     0.9993   0.799   0.199
Ce462     Ce     0.0491   0.801   0.2493
Er463     Er     0.5788   0.4212   0.25
Er464     Er     0.5   0.5788   0.3288
Ti465     Ti     0.4712   0.5   0.2212
Ti466     Ti     0.5   0.5288   0.2788
Ti467     Ti     0.5288   0.4712   0.25
Er468     Er     0.4212   0.5   0.1712
V469     V     0.4998   0.647   0.347
V470     V     0.647   0.403   0.2502
V471     V     0.5002   0.597   0.397
V472     V     0.597   0.353   0.2498
V473     V     0.353   0.5002   0.153
V474     V     0.403   0.4998   0.103
Ce475     Ce     0.451   0.199   0.2507
Ce476     Ce     0.549   0.301   0.2493
Ce477     Ce     0.5007   0.201   0.301
Ce478     Ce     0.551   0.2507   0.299
Ce479     Ce     0.4993   0.299   0.199
Ce480     Ce     0.449   0.2493   0.201
Er481     Er     0.75   0.3288   0.1712
Er482     Er     0.6712   0.25   0.3288
Er483     Er     0.8288   0.1712   0.25
Ti484     Ti     0.7788   0.2212   0.25
Ti485     Ti     0.7212   0.25   0.2788
Ti486     Ti     0.75   0.2788   0.2212
V487     V     0.7502   0.347   0.103
V488     V     0.847   0.103   0.2502
V489     V     0.7498   0.397   0.153
V490     V     0.653   0.2498   0.397
V491     V     0.897   0.153   0.2498
V492     V     0.603   0.2502   0.347
Ce493     Ce     0.451   0.7507   0.199
Ce494     Ce     0.551   0.799   0.2507
Ce495     Ce     0.5007   0.801   0.201
Ce496     Ce     0.549   0.7493   0.301
Ce497     Ce     0.4993   0.699   0.299
Ce498     Ce     0.449   0.701   0.2493
Er499     Er     0.75   0.6712   0.3288
Er500     Er     0.6712   0.8288   0.25
Ti501     Ti     0.75   0.7212   0.2788
Ti502     Ti     0.7212   0.7788   0.25
Ti503     Ti     0.7788   0.75   0.2212
Er504     Er     0.8288   0.75   0.1712
V505     V     0.653   0.897   0.2498
V506     V     0.847   0.7502   0.103
V507     V     0.603   0.847   0.2502
V508     V     0.7502   0.603   0.347
V509     V     0.897   0.7498   0.153
V510     V     0.7498   0.653   0.397
Ce511     Ce     0.799   0.4993   0.199
Ce512     Ce     0.7493   0.449   0.2009
Ce513     Ce     0.801   0.549   0.2493
Ce514     Ce     0.7507   0.551   0.2991
Ce515     Ce     0.699   0.451   0.2507
Ce516     Ce     0.701   0.5007   0.301
Ce517     Ce     0.301   0.201   0.0007
Ce518     Ce     0.2493   0.301   0.0491
Ce519     Ce     0.299   0.2507   0.051
Ce520     Ce     0.199   0.299   0.9993
Ce521     Ce     0.201   0.2493   0.949
Ce522     Ce     0.2507   0.199   0.951
Ce523     Ce     0.201   0.0007   0.301
Ce524     Ce     0.2507   0.051   0.2991
Ce525     Ce     0.301   0.0491   0.2493
Ce526     Ce     0.299   0.9993   0.199
Ce527     Ce     0.2493   0.949   0.2009
Ce528     Ce     0.199   0.951   0.2507
Ce529     Ce     0.949   0.2009   0.2493
Ce530     Ce     0.951   0.2507   0.199
Ce531     Ce     0.0491   0.2493   0.301
Ce532     Ce     0.9993   0.199   0.299
Ce533     Ce     0.0007   0.301   0.201
Ce534     Ce     0.051   0.2991   0.2507
Er535     Er     0.1712   0.9212   0.0
Er536     Er     0.25   0.0788   0.9212
Er537     Er     0.3288   0.0   0.0788
Ti538     Ti     0.25   0.0288   0.9712
Ti539     Ti     0.2212   0.9712   0.0
Ti540     Ti     0.2788   0.0   0.0288
V541     V     0.153   0.853   0.0002
V542     V     0.2498   0.097   0.853
V543     V     0.397   0.0002   0.097
V544     V     0.103   0.903   0.9998
V545     V     0.347   0.9998   0.147
V546     V     0.2502   0.1471   0.903
Er547     Er     0.9212   0.0   0.1712
Er548     Er     0.0788   0.9212   0.25
Er549     Er     0.0   0.0788   0.3288
Ti550     Ti     0.0   0.0288   0.2788
Ti551     Ti     0.0288   0.9712   0.25
Ti552     Ti     0.9712   0.0   0.2212
V553     V     0.853   0.0002   0.153
V554     V     0.097   0.853   0.2498
V555     V     0.0002   0.097   0.397
V556     V     0.903   0.9998   0.103
V557     V     0.9998   0.147   0.347
V558     V     0.1471   0.903   0.2502
Er559     Er     0.0   0.1712   0.9212
Er560     Er     0.9212   0.25   0.0788
Er561     Er     0.0788   0.3288   0.0
Ti562     Ti     0.9712   0.25   0.0288
Ti563     Ti     0.0   0.2212   0.9712
Ti564     Ti     0.0288   0.2788   0.0
V565     V     0.0002   0.153   0.853
V566     V     0.853   0.2498   0.097
V567     V     0.097   0.397   0.0002
V568     V     0.9998   0.103   0.903
V569     V     0.147   0.347   0.9998
V570     V     0.903   0.2502   0.1471
Ce571     Ce     0.949   0.0491   0.0007
Ce572     Ce     0.951   0.9993   0.051
Ce573     Ce     0.0007   0.949   0.0491
Ce574     Ce     0.051   0.951   0.9993
Ce575     Ce     0.0491   0.0007   0.949
Ce576     Ce     0.9993   0.051   0.951
loop_
_geom_bond_atom_site_label_1
_geom_bond_atom_site_label_2
_geom_bond_distance
_geom_bond_site_symmetry_2
_ccdc_geom_bond_type
Er1     V8    9.992   .     S
Er1     V10    9.992   .     S
Er1     Ti3    9.993   .     S
Er2     V7    9.992   .     S
Er2     V11    9.992   .     S
Er2     Ti5    9.993   .     S
Ti3     Ti4    9.992   .     S
Ti3     Ti5    9.992   .     S
Ti4     Ti5    9.992   .     S
Ti4     Er6    9.993   .     S
Er6     V9    9.992   .     S
Er6     V12    9.992   .     S
V7     V11    10.005   .     S
V7     Ce82    10.007   .     S
V8     V10    10.005   .     S
V8     Ce350    10.007   .     S
V9     V12    10.005   .     S
V9     Ce380    10.007   .     S
V10     Ce97    10.007   .     S
V11     Ce307    10.007   .     S
V12     Ce187    10.007   .     S
Er13     V23    9.992   .     S
Er13     V21    9.992   .     S
Er13     Ti16    9.993   .     S
Er14     V24    9.992   .     S
Er14     V20    9.992   .     S
Er14     Ti17    9.993   .     S
Er15     V22    9.992   .     S
Er15     V19    9.992   .     S
Er15     Ti18    9.993   .     S
Ti16     Ti17    9.992   .     S
Ti16     Ti18    9.992   .     S
Ti17     Ti18    9.992   .     S
V19     V22    10.005   .     S
V19     Ce480    10.007   .     S
V20     V24    10.005   .     S
V20     Ce534    10.007   .     S
V21     V23    10.005   .     S
V21     Ce524    10.007   .     S
V22     Ce519    10.007   .     S
V23     Ce435    10.007   .     S
V24     Ce216    10.007   .     S
Er25     V34    9.992   .     S
Er25     V33    9.992   .     S
Er25     Ti29    9.993   .     S
Er26     V32    9.992   .     S
Er26     V35    9.992   .     S
Er26     Ti30    9.993   .     S
Er27     V31    9.992   .     S
Er27     V36    9.992   .     S
Er27     Ti28    9.993   .     S
Ti28     Ti30    9.992   .     S
Ti28     Ti29    9.992   .     S
Ti29     Ti30    9.992   .     S
V31     V36    10.005   .     S
V31     Ce50    10.007   .     S
V32     V35    10.005   .     S
V32     Ce460    10.007   .     S
V33     V34    10.005   .     S
V33     Ce213    10.007   .     S
V34     Ce498    10.007   .     S
V35     Ce231    10.007   .     S
V36     Ce527    10.007   .     S
Er37     V46    9.992   .     S
Er37     V45    9.992   .     S
Er37     Ti39    9.993   .     S
Er38     V43    9.992   1_554     S
Er38     V44    9.992   .     S
Er38     Ti40    9.993   .     S
Ti39     Ti41    9.992   1_556     S
Ti39     Ti40    9.992   1_456     S
Ti40     Ti39    9.992   1_654     S
Ti40     Ti41    9.992   1_655     S
Ti41     Ti39    9.992   1_554     S
Ti41     Ti40    9.992   1_455     S
Ti41     Er42    9.993   .     S
Er42     V47    9.992   1_455     S
Er42     V48    9.992   .     S
V43     Er38    9.992   1_556     S
V43     V44    10.005   1_556     S
V43     Ce75    10.007   .     S
V44     V43    10.005   1_554     S
V44     Ce189    10.007   .     S
V45     V46    10.005   .     S
V45     Ce101    10.007   .     S
V46     Ce53    10.007   .     S
V47     Er42    9.992   1_655     S
V47     V48    10.005   1_655     S
V47     Ce461    10.007   .     S
V48     V47    10.005   1_455     S
V48     Ce573    10.007   .     S
Ce49     Ce53    10.006   1_554     S
Ce49     Ce50    10.006   .     S
Ce49     V541    10.007   .     S
Ce50     Ce51    10.006   .     S
Ce51     Ce52    10.006   1_554     S
Ce51     V172    10.007   .     S
Ce52     Ce51    10.006   1_556     S
Ce52     Ce54    10.006   .     S
Ce52     V267    10.007   .     S
Ce53     Ce49    10.006   1_556     S
Ce53     Ce54    10.006   .     S
Ce54     V241    10.007   .     S
Ce55     Ce58    10.006   .     S
Ce55     Ce56    10.006   .     S
Ce55     V403    10.007   .     S
Ce56     Ce57    10.006   1_556     S
Ce56     V68    10.007   .     S
Ce57     Ce56    10.006   1_554     S
Ce57     Ce59    10.006   .     S
Ce57     V184    10.007   .     S
Ce58     Ce60    10.006   1_556     S
Ce58     V340    10.007   .     S
Ce59     Ce60    10.006   .     S
Ce59     V487    10.007   .     S
Ce60     Ce58    10.006   1_554     S
Ce60     V566    10.007   .     S
Er61     V68    9.992   .     S
Er61     V69    9.992   .     S
Er61     Ti64    9.993   .     S
Er62     V67    9.992   1_554     S
Er62     V70    9.992   .     S
Er62     Ti65    9.993   .     S
Er63     V72    9.992   .     S
Er63     V71    9.992   .     S
Er63     Ti66    9.993   .     S
Ti64     Ti65    9.992   1_556     S
Ti64     Ti66    9.992   1_556     S
Ti65     Ti64    9.992   1_554     S
Ti65     Ti66    9.992   .     S
Ti66     Ti64    9.992   1_554     S
V67     Er62    9.992   1_556     S
V67     V70    10.005   1_556     S
V67     Ce254    10.007   .     S
V68     V69    10.005   .     S
V69     Ce410    10.007   .     S
V70     V67    10.005   1_554     S
V70     Ce517    10.007   .     S
V71     V72    10.005   .     S
V71     Ce274    10.007   .     S
V72     Ce479    10.007   .     S
Ce73     Ce78    10.006   1_554     S
Ce73     Ce74    10.006   1_455     S
Ce73     V567    10.007   .     S
Ce74     Ce73    10.006   1_655     S
Ce74     Ce76    10.006   .     S
Ce74     V451    10.007   .     S
Ce75     Ce76    10.006   1_556     S
Ce75     Ce77    10.006   1_655     S
Ce76     Ce75    10.006   1_554     S
Ce76     V181    10.007   .     S
Ce77     Ce75    10.006   1_455     S
Ce77     Ce78    10.006   .     S
Ce77     V125    10.007   .     S
Ce78     Ce73    10.006   1_556     S
Ce78     V266    10.007   .     S
Ce79     Ce81    10.006   .     S
Ce79     Ce80    10.006   .     S
Ce79     V160    10.007   .     S
Ce80     Ce83    10.006   .     S
Ce80     V510    10.007   .     S
Ce81     Ce82    10.006   .     S
Ce81     V92    10.007   .     S
Ce82     Ce84    10.006   .     S
Ce83     Ce84    10.006   .     S
Ce83     V374    10.007   .     S
Ce84     V289    10.007   .     S
Er85     V91    9.992   .     S
Er85     V92    9.992   .     S
Er85     Ti87    9.993   .     S
Er86     V95    9.992   1_455     S
Er86     V94    9.992   .     S
Er86     Ti89    9.993   .     S
Ti87     Ti89    9.992   1_655     S
Ti87     Ti88    9.992   1_655     S
Ti88     Ti87    9.992   1_455     S
Ti88     Ti89    9.992   .     S
Ti88     Er90    9.993   .     S
Ti89     Ti87    9.992   1_455     S
Er90     V96    9.992   .     S
Er90     V93    9.992   .     S
V91     V92    10.005   .     S
V91     Ce98    10.007   .     S
V93     V96    10.005   .     S
V93     Ce279    10.007   .     S
V94     V95    10.005   1_455     S
V94     Ce459    10.007   .     S
V95     Er86    9.992   1_655     S
V95     V94    10.005   1_655     S
V95     Ce129    10.007   .     S
V96     Ce229    10.007   .     S
Ce97     Ce102    10.006   .     S
Ce97     Ce98    10.006   .     S
Ce98     Ce99    10.006   1_655     S
Ce99     Ce98    10.006   1_455     S
Ce99     Ce100    10.006   .     S
Ce99     V139    10.007   .     S
Ce100     Ce101    10.006   .     S
Ce100     V244    10.007   .     S
Ce101     Ce102    10.006   1_455     S
Ce102     Ce101    10.006   1_655     S
Ce102     V121    10.007   .     S
Er103     V110    9.992   .     S
Er103     V112    9.992   .     S
Er103     Ti106    9.993   .     S
Er104     V113    9.992   .     S
Er104     V111    9.992   1_455     S
Er104     Ti107    9.993   .     S
Ti105     Ti107    9.992   .     S
Ti105     Ti106    9.992   1_455     S
Ti105     Er108    9.993   .     S
Ti106     Ti105    9.992   1_655     S
Ti106     Ti107    9.992   1_655     S
Ti107     Ti106    9.992   1_455     S
Er108     V114    9.992   .     S
Er108     V109    9.992   .     S
V109     V114    10.005   .     S
V109     Ce531    10.007   .     S
V110     V112    10.005   .     S
V110     Ce278    10.007   .     S
V111     Er104    9.992   1_655     S
V111     V113    10.005   1_655     S
V111     Ce150    10.007   .     S
V112     Ce416    10.007   .     S
V113     V111    10.005   1_455     S
V113     Ce127    10.007   .     S
V114     Ce436    10.007   .     S
Er115     V125    9.992   .     S
Er115     V121    9.992   1_455     S
Er115     Ti119    9.993   .     S
Er116     V124    9.992   .     S
Er116     V122    9.992   .     S
Er116     Ti120    9.993   .     S
Er117     V126    9.992   .     S
Er117     V123    9.992   .     S
Er117     Ti118    9.993   .     S
Ti118     Ti119    9.992   .     S
Ti118     Ti120    9.992   1_455     S
Ti119     Ti120    9.992   1_455     S
Ti120     Ti118    9.992   1_655     S
Ti120     Ti119    9.992   1_655     S
V121     Er115    9.992   1_655     S
V121     V125    10.005   1_655     S
V122     V124    10.005   .     S
V122     Ce352    10.007   .     S
V123     V126    10.005   .     S
V123     Ce149    10.007   .     S
V124     Ce132    10.007   .     S
V125     V121    10.005   1_455     S
V126     Ce250    10.007   .     S
Ce127     Ce132    10.006   1_455     S
Ce127     Ce128    10.006   .     S
Ce128     Ce130    10.006   .     S
Ce128     V227    10.007   .     S
Ce129     Ce130    10.006   1_655     S
Ce129     Ce131    10.006   .     S
Ce130     Ce129    10.006   1_455     S
Ce130     V455    10.007   .     S
Ce131     Ce132    10.006   .     S
Ce131     V162    10.007   .     S
Ce132     Ce127    10.006   1_655     S
Er133     V141    9.992   .     S
Er133     V140    9.992   .     S
Er133     Ti135    9.993   .     S
Er134     V144    9.992   1_455     S
Er134     V139    9.992   .     S
Er134     Ti136    9.993   .     S
Ti135     Ti137    9.992   1_655     S
Ti135     Ti136    9.992   1_645     S
Ti136     Ti135    9.992   1_465     S
Ti136     Ti137    9.992   1_565     S
Ti137     Ti135    9.992   1_455     S
Ti137     Ti136    9.992   1_545     S
Ti137     Er138    9.993   .     S
Er138     V142    9.992   1_545     S
Er138     V143    9.992   .     S
V139     V144    10.005   1_455     S
V140     V141    10.005   .     S
V140     Ce311    10.007   .     S
V141     Ce145    10.007   .     S
V142     Er138    9.992   1_565     S
V142     V143    10.005   1_565     S
V142     Ce196    10.007   .     S
V143     V142    10.005   1_545     S
V143     Ce575    10.007   .     S
V144     Er134    9.992   1_655     S
V144     V139    10.005   1_655     S
V144     Ce280    10.007   .     S
Ce145     Ce148    10.006   .     S
Ce145     Ce146    10.006   1_655     S
Ce146     Ce145    10.006   1_455     S
Ce146     Ce147    10.006   .     S
Ce146     V565    10.007   .     S
Ce147     Ce149    10.006   .     S
Ce147     V392    10.007   .     S
Ce148     Ce150    10.006   .     S
Ce148     V406    10.007   .     S
Ce149     Ce150    10.006   1_455     S
Ce150     Ce149    10.006   1_655     S
Er151     V157    9.992   .     S
Er151     V159    9.992   .     S
Er151     Ti154    9.993   .     S
Er152     V162    9.992   .     S
Er152     V160    9.992   .     S
Er152     Ti155    9.993   .     S
Er153     V158    9.992   .     S
Er153     V161    9.992   .     S
Er153     Ti156    9.993   .     S
Ti154     Ti155    9.992   .     S
Ti154     Ti156    9.992   .     S
Ti155     Ti156    9.992   .     S
V157     V159    10.005   .     S
V157     Ce418    10.007   .     S
V158     V161    10.005   .     S
V158     Ce439    10.007   .     S
V159     Ce351    10.007   .     S
V160     V162    10.005   .     S
V161     Ce516    10.007   .     S
Er163     V173    9.992   .     S
Er163     V170    9.992   .     S
Er163     Ti167    9.993   .     S
Er164     V171    9.992   .     S
Er164     V169    9.992   1_554     S
Er164     Ti168    9.993   .     S
Er165     V174    9.992   .     S
Er165     V172    9.992   .     S
Er165     Ti166    9.993   .     S
Ti166     Ti168    9.992   .     S
Ti166     Ti167    9.992   1_554     S
Ti167     Ti166    9.992   1_556     S
Ti167     Ti168    9.992   1_556     S
Ti168     Ti167    9.992   1_554     S
V169     Er164    9.992   1_556     S
V169     V171    10.005   1_556     S
V169     Ce191    10.007   .     S
V170     V173    10.005   .     S
V170     Ce382    10.007   .     S
V171     V169    10.005   1_554     S
V171     Ce257    10.007   .     S
V172     V174    10.005   .     S
V173     Ce276    10.007   .     S
V174     Ce493    10.007   .     S
Er175     V183    9.992   .     S
Er175     V182    9.992   .     S
Er175     Ti178    9.993   .     S
Er176     V185    9.992   1_554     S
Er176     V184    9.992   .     S
Er176     Ti179    9.993   .     S
Ti177     Ti179    9.992   .     S
Ti177     Ti178    9.992   1_554     S
Ti177     Er180    9.993   .     S
Ti178     Ti179    9.992   1_556     S
Ti178     Ti177    9.992   1_556     S
Ti179     Ti178    9.992   1_554     S
Er180     V186    9.992   .     S
Er180     V181    9.992   .     S
V181     V186    10.005   .     S
V182     V183    10.005   .     S
V182     Ce354    10.007   .     S
V183     Ce188    10.007   .     S
V184     V185    10.005   1_554     S
V185     Er176    9.992   1_556     S
V185     V184    10.005   1_556     S
V185     Ce272    10.007   .     S
V186     Ce511    10.007   .     S
Ce187     Ce191    10.006   .     S
Ce187     Ce188    10.006   .     S
Ce188     Ce189    10.006   1_556     S
Ce189     Ce188    10.006   1_554     S
Ce189     Ce190    10.006   .     S
Ce190     Ce192    10.006   .     S
Ce190     V506    10.007   .     S
Ce191     Ce192    10.006   1_556     S
Ce192     Ce191    10.006   1_554     S
Ce192     V337    10.007   .     S
Ce193     Ce196    10.006   .     S
Ce193     Ce194    10.006   .     S
Ce193     V243    10.007   .     S
Ce194     Ce195    10.006   1_565     S
Ce194     V206    10.007   .     S
Ce195     Ce194    10.006   1_545     S
Ce195     Ce197    10.006   .     S
Ce195     V303    10.007   .     S
Ce196     Ce198    10.006   1_565     S
Ce197     Ce198    10.006   .     S
Ce197     V391    10.007   .     S
Ce198     Ce196    10.006   1_545     S
Ce198     V542    10.007   .     S
Er199     V206    9.992   .     S
Er199     V207    9.992   .     S
Er199     Ti202    9.993   .     S
Er200     V205    9.992   1_545     S
Er200     V208    9.992   .     S
Er200     Ti203    9.993   .     S
Er201     V210    9.992   .     S
Er201     V209    9.992   .     S
Er201     Ti204    9.993   .     S
Ti202     Ti203    9.992   1_565     S
Ti202     Ti204    9.992   1_565     S
Ti203     Ti202    9.992   1_545     S
Ti203     Ti204    9.992   .     S
Ti204     Ti202    9.992   1_545     S
V205     Er200    9.992   1_565     S
V205     V208    10.005   1_565     S
V205     Ce282    10.007   .     S
V206     V207    10.005   .     S
V207     Ce234    10.007   .     S
V208     V205    10.005   1_545     S
V208     Ce523    10.007   .     S
V209     V210    10.005   .     S
V209     Ce328    10.007   .     S
V210     Ce434    10.007   .     S
Ce211     Ce213    10.006   .     S
Ce211     Ce215    10.006   .     S
Ce211     V225    10.007   .     S
Ce212     Ce216    10.006   .     S
Ce212     Ce214    10.006   .     S
Ce212     V268    10.007   .     S
Ce213     Ce214    10.006   .     S
Ce214     V473    10.007   .     S
Ce215     Ce216    10.006   .     S
Ce215     V454    10.007   .     S
Er217     V225    9.992   .     S
Er217     V223    9.992   .     S
Er217     Ti219    9.993   .     S
Er218     V228    9.992   .     S
Er218     V224    9.992   .     S
Er218     Ti220    9.993   .     S
Ti219     Ti220    9.992   .     S
Ti219     Ti221    9.992   .     S
Ti220     Ti221    9.992   .     S
Ti221     Er222    9.993   .     S
Er222     V227    9.992   .     S
Er222     V226    9.992   .     S
V223     V225    10.005   .     S
V223     Ce230    10.007   .     S
V224     V228    10.005   .     S
V224     Ce444    10.007   .     S
V226     V227    10.005   .     S
V226     Ce438    10.007   .     S
V228     Ce247    10.007   .     S
Ce229     Ce234    10.006   .     S
Ce229     Ce231    10.006   .     S
Ce230     Ce231    10.006   .     S
Ce230     Ce232    10.006   .     S
Ce232     Ce233    10.006   .     S
Ce232     V377    10.007   .     S
Ce233     Ce234    10.006   .     S
Ce233     V246    10.007   .     S
Er235     V246    9.992   .     S
Er235     V242    9.992   .     S
Er235     Ti239    9.993   .     S
Er236     V243    9.992   .     S
Er236     V244    9.992   .     S
Er236     Ti238    9.993   .     S
Ti237     Ti239    9.992   .     S
Ti237     Ti238    9.992   .     S
Ti237     Er240    9.993   .     S
Ti238     Ti239    9.992   .     S
Er240     V245    9.992   .     S
Er240     V241    9.992   .     S
V241     V245    10.005   .     S
V242     V246    10.005   .     S
V242     Ce379    10.007   .     S
V243     V244    10.005   .     S
V245     Ce251    10.007   .     S
Ce247     Ce249    10.006   .     S
Ce247     Ce248    10.006   .     S
Ce248     Ce250    10.006   .     S
Ce248     V395    10.007   .     S
Ce249     Ce251    10.006   .     S
Ce249     V361    10.007   .     S
Ce250     Ce252    10.006   .     S
Ce251     Ce252    10.006   .     S
Ce252     V270    10.007   .     S
Ce253     Ce258    10.006   1_545     S
Ce253     Ce254    10.006   1_554     S
Ce253     V543    10.007   .     S
Ce254     Ce253    10.006   1_556     S
Ce254     Ce256    10.006   .     S
Ce255     Ce256    10.006   1_565     S
Ce255     Ce257    10.006   1_556     S
Ce255     V338    10.007   .     S
Ce256     Ce255    10.006   1_545     S
Ce256     V305    10.007   .     S
Ce257     Ce255    10.006   1_554     S
Ce257     Ce258    10.006   .     S
Ce258     Ce253    10.006   1_565     S
Ce258     V321    10.007   .     S
Er259     V266    9.992   .     S
Er259     V270    9.992   .     S
Er259     Ti261    9.993   .     S
Er260     V269    9.992   .     S
Er260     V267    9.992   1_554     S
Er260     Ti263    9.993   .     S
Ti261     Ti263    9.992   1_556     S
Ti261     Ti262    9.992   1_556     S
Ti262     Ti263    9.992   .     S
Ti262     Ti261    9.992   1_554     S
Ti262     Er264    9.993   .     S
Ti263     Ti261    9.992   1_554     S
Er264     V268    9.992   .     S
Er264     V265    9.992   .     S
V265     V268    10.005   .     S
V265     Ce518    10.007   .     S
V266     V270    10.005   .     S
V267     Er260    9.992   1_556     S
V267     V269    10.005   1_556     S
V269     V267    10.005   1_554     S
V269     Ce271    10.007   .     S
Ce271     Ce276    10.006   1_554     S
Ce271     Ce273    10.006   .     S
Ce272     Ce274    10.006   1_556     S
Ce272     Ce275    10.006   .     S
Ce273     Ce274    10.006   .     S
Ce273     V474    10.007   .     S
Ce274     Ce272    10.006   1_554     S
Ce275     Ce276    10.006   .     S
Ce275     V366    10.007   .     S
Ce276     Ce271    10.006   1_556     S
Ce277     Ce280    10.006   1_545     S
Ce277     Ce278    10.006   .     S
Ce277     V290    10.007   .     S
Ce278     Ce281    10.006   1_655     S
Ce279     Ce282    10.006   .     S
Ce279     Ce280    10.006   1_455     S
Ce280     Ce277    10.006   1_565     S
Ce280     Ce279    10.006   1_655     S
Ce281     Ce278    10.006   1_455     S
Ce281     Ce282    10.006   1_545     S
Ce281     V555    10.007   .     S
Ce282     Ce281    10.006   1_565     S
Er283     V293    9.992   .     S
Er283     V289    9.992   .     S
Er283     Ti286    9.993   .     S
Er284     V291    9.992   1_545     S
Er284     V290    9.992   .     S
Er284     Ti287    9.993   .     S
Er285     V294    9.992   .     S
Er285     V292    9.992   .     S
Er285     Ti288    9.993   .     S
Ti286     Ti288    9.992   1_565     S
Ti286     Ti287    9.992   1_565     S
Ti287     Ti286    9.992   1_545     S
Ti287     Ti288    9.992   .     S
Ti288     Ti286    9.992   1_545     S
V289     V293    10.005   .     S
V290     V291    10.005   1_545     S
V291     Er284    9.992   1_565     S
V291     V290    10.005   1_565     S
V291     Ce312    10.007   .     S
V292     V294    10.005   .     S
V292     Ce347    10.007   .     S
V293     Ce330    10.007   .     S
V294     Ce415    10.007   .     S
Er295     V302    9.992   .     S
Er295     V301    9.992   .     S
Er295     Ti297    9.993   .     S
Ti296     Ti298    9.992   .     S
Ti296     Ti297    9.992   1_545     S
Ti296     Er299    9.993   .     S
Ti297     Ti298    9.992   1_565     S
Ti297     Ti296    9.992   1_565     S
Ti298     Ti297    9.992   1_545     S
Ti298     Er300    9.993   .     S
Er299     V306    9.992   .     S
Er299     V305    9.992   .     S
Er300     V304    9.992   1_545     S
Er300     V303    9.992   .     S
V301     V302    10.005   .     S
V301     Ce384    10.007   .     S
V302     Ce308    10.007   .     S
V303     V304    10.005   1_545     S
V304     Er300    9.992   1_565     S
V304     V303    10.005   1_565     S
V304     Ce327    10.007   .     S
V305     V306    10.005   .     S
V306     Ce409    10.007   .     S
Ce307     Ce312    10.006   .     S
Ce307     Ce308    10.006   .     S
Ce308     Ce309    10.006   1_565     S
Ce309     Ce308    10.006   1_545     S
Ce309     Ce310    10.006   .     S
Ce309     V342    10.007   .     S
Ce310     Ce311    10.006   .     S
Ce310     V404    10.007   .     S
Ce311     Ce312    10.006   1_545     S
Ce312     Ce311    10.006   1_565     S
Er313     V321    9.992   .     S
Er313     V322    9.992   .     S
Er313     Ti316    9.993   .     S
Er314     V323    9.992   .     S
Er314     V320    9.992   1_545     S
Er314     Ti317    9.993   .     S
Ti315     Ti317    9.992   .     S
Ti315     Ti316    9.992   1_545     S
Ti315     Er318    9.993   .     S
Ti316     Ti315    9.992   1_565     S
Ti316     Ti317    9.992   1_565     S
Ti317     Ti316    9.992   1_545     S
Er318     V324    9.992   .     S
Er318     V319    9.992   .     S
V319     V324    10.005   .     S
V319     Ce525    10.007   .     S
V320     Er314    9.992   1_565     S
V320     V323    10.005   1_565     S
V320     Ce348    10.007   .     S
V321     V322    10.005   .     S
V322     Ce495    10.007   .     S
V323     V320    10.005   1_545     S
V323     Ce325    10.007   .     S
V324     Ce475    10.007   .     S
Ce325     Ce330    10.006   1_545     S
Ce325     Ce326    10.006   .     S
Ce326     Ce328    10.006   .     S
Ce326     V432    10.007   .     S
Ce327     Ce328    10.006   1_565     S
Ce327     Ce329    10.006   .     S
Ce328     Ce327    10.006   1_545     S
Ce329     Ce330    10.006   .     S
Ce329     V378    10.007   .     S
Ce330     Ce325    10.006   1_565     S
Er331     V339    9.992   .     S
Er331     V337    9.992   .     S
Er331     Ti333    9.993   .     S
Er332     V342    9.992   .     S
Er332     V338    9.992   1_545     S
Er332     Ti334    9.993   .     S
Ti333     Ti335    9.992   1_565     S
Ti333     Ti334    9.992   1_564     S
Ti334     Ti333    9.992   1_546     S
Ti334     Ti335    9.992   1_556     S
Ti335     Ti333    9.992   1_545     S
Ti335     Ti334    9.992   1_554     S
Ti335     Er336    9.993   .     S
Er336     V340    9.992   1_554     S
Er336     V341    9.992   .     S
V337     V339    10.005   .     S
V338     Er332    9.992   1_565     S
V338     V342    10.005   1_565     S
V339     Ce343    10.007   .     S
V340     Er336    9.992   1_556     S
V340     V341    10.005   1_556     S
V341     V340    10.005   1_554     S
V341     Ce571    10.007   .     S
V342     V338    10.005   1_545     S
Ce343     Ce346    10.006   .     S
Ce343     Ce344    10.006   1_565     S
Ce344     Ce343    10.006   1_545     S
Ce344     Ce345    10.006   .     S
Ce344     V553    10.007   .     S
Ce345     Ce347    10.006   .     S
Ce345     V488    10.007   .     S
Ce346     Ce348    10.006   .     S
Ce346     V505    10.007   .     S
Ce347     Ce348    10.006   1_545     S
Ce348     Ce347    10.006   1_565     S
Ce349     Ce353    10.006   .     S
Ce349     Ce351    10.006   .     S
Ce349     V408    10.007   .     S
Ce350     Ce352    10.006   .     S
Ce350     Ce354    10.006   .     S
Ce351     Ce352    10.006   .     S
Ce353     Ce354    10.006   .     S
Ce353     V363    10.007   .     S
Er355     V361    9.992   .     S
Er355     V362    9.992   .     S
Er355     Ti358    9.993   .     S
Er356     V366    9.992   .     S
Er356     V363    9.992   .     S
Er356     Ti359    9.993   .     S
Er357     V364    9.992   .     S
Er357     V365    9.992   .     S
Er357     Ti360    9.993   .     S
Ti358     Ti359    9.992   .     S
Ti358     Ti360    9.992   .     S
Ti359     Ti360    9.992   .     S
V361     V362    10.005   .     S
V362     Ce381    10.007   .     S
V363     V366    10.005   .     S
V364     V365    10.005   .     S
V364     Ce414    10.007   .     S
V365     Ce443    10.007   .     S
Er367     V373    9.992   .     S
Er367     V374    9.992   .     S
Er367     Ti370    9.993   .     S
Er368     V376    9.992   .     S
Er368     V378    9.992   .     S
Er368     Ti371    9.993   .     S
Er369     V377    9.992   .     S
Er369     V375    9.992   .     S
Er369     Ti372    9.993   .     S
Ti370     Ti371    9.992   .     S
Ti370     Ti372    9.992   .     S
Ti371     Ti372    9.992   .     S
V373     V374    10.005   .     S
V373     Ce496    10.007   .     S
V375     V377    10.005   .     S
V375     Ce441    10.007   .     S
V376     V378    10.005   .     S
V376     Ce383    10.007   .     S
Ce379     Ce383    10.006   .     S
Ce379     Ce381    10.006   .     S
Ce380     Ce382    10.006   .     S
Ce380     Ce384    10.006   .     S
Ce381     Ce382    10.006   .     S
Ce383     Ce384    10.006   .     S
Er385     V394    9.992   .     S
Er385     V391    9.992   .     S
Er385     Ti389    9.993   .     S
Er386     V395    9.992   .     S
Er386     V393    9.992   .     S
Er386     Ti388    9.993   .     S
Ti387     Ti389    9.992   .     S
Ti387     Ti388    9.992   .     S
Ti387     Er390    9.993   .     S
Ti388     Ti389    9.992   .     S
Er390     V392    9.992   .     S
Er390     V396    9.992   .     S
V391     V394    10.005   .     S
V392     V396    10.005   .     S
V393     V395    10.005   .     S
V393     Ce437    10.007   .     S
V394     Ce411    10.007   .     S
V396     Ce521    10.007   .     S
Er397     V408    9.992   .     S
Er397     V407    9.992   .     S
Er397     Ti401    9.993   .     S
Er398     V405    9.992   .     S
Er398     V406    9.992   .     S
Er398     Ti399    9.993   .     S
Ti399     Ti401    9.992   .     S
Ti399     Ti400    9.992   .     S
Ti400     Ti401    9.992   .     S
Ti400     Er402    9.993   .     S
Er402     V404    9.992   .     S
Er402     V403    9.992   .     S
V403     V404    10.005   .     S
V405     V406    10.005   .     S
V405     Ce417    10.007   .     S
V407     V408    10.005   .     S
V407     Ce412    10.007   .     S
Ce409     Ce410    10.006   .     S
Ce409     Ce411    10.006   .     S
Ce410     Ce412    10.006   .     S
Ce411     Ce413    10.006   .     S
Ce412     Ce414    10.006   .     S
Ce413     Ce414    10.006   .     S
Ce413     V427    10.007   .     S
Ce415     Ce420    10.006   .     S
Ce415     Ce416    10.006   .     S
Ce416     Ce417    10.006   .     S
Ce417     Ce418    10.006   .     S
Ce418     Ce419    10.006   .     S
Ce419     Ce420    10.006   .     S
Ce419     V428    10.007   .     S
Ce420     V490    10.007   .     S
Er421     V427    9.992   .     S
Er421     V430    9.992   .     S
Er421     Ti423    9.993   .     S
Er422     V428    9.992   .     S
Er422     V429    9.992   .     S
Er422     Ti424    9.993   .     S
Ti423     Ti424    9.992   .     S
Ti423     Ti425    9.992   .     S
Ti424     Ti425    9.992   .     S
Ti425     Er426    9.993   .     S
Er426     V432    9.992   .     S
Er426     V431    9.992   .     S
V427     V430    10.005   .     S
V428     V429    10.005   .     S
V429     Ce440    10.007   .     S
V430     Ce433    10.007   .     S
V431     V432    10.005   .     S
V431     Ce477    10.007   .     S
Ce433     Ce437    10.006   .     S
Ce433     Ce434    10.006   .     S
Ce434     Ce435    10.006   .     S
Ce435     Ce436    10.006   .     S
Ce436     Ce438    10.006   .     S
Ce437     Ce438    10.006   .     S
Ce439     Ce442    10.006   .     S
Ce439     Ce440    10.006   .     S
Ce440     Ce443    10.006   .     S
Ce441     Ce444    10.006   .     S
Ce441     Ce442    10.006   .     S
Ce442     V471    10.007   .     S
Ce443     Ce444    10.006   .     S
Er445     V453    9.992   .     S
Er445     V452    9.992   .     S
Er445     Ti448    9.993   .     S
Er446     V451    9.992   1_455     S
Er446     V456    9.992   .     S
Er446     Ti450    9.993   .     S
Er447     V454    9.992   .     S
Er447     V455    9.992   .     S
Er447     Ti449    9.993   .     S
Ti448     Ti450    9.992   1_655     S
Ti448     Ti449    9.992   1_655     S
Ti449     Ti448    9.992   1_455     S
Ti449     Ti450    9.992   .     S
Ti450     Ti448    9.992   1_455     S
V451     Er446    9.992   1_655     S
V451     V456    10.005   1_655     S
V452     V453    10.005   .     S
V452     Ce513    10.007   .     S
V453     Ce458    10.007   .     S
V454     V455    10.005   .     S
V456     V451    10.005   1_455     S
V456     Ce533    10.007   .     S
Ce457     Ce461    10.006   .     S
Ce457     Ce458    10.006   .     S
Ce457     V509    10.007   .     S
Ce458     Ce459    10.006   1_655     S
Ce459     Ce458    10.006   1_455     S
Ce459     Ce460    10.006   .     S
Ce460     Ce462    10.006   .     S
Ce461     Ce462    10.006   1_655     S
Ce462     Ce461    10.006   1_455     S
Ce462     V554    10.007   .     S
Er463     V472    9.992   .     S
Er463     V470    9.992   .     S
Er463     Ti467    9.993   .     S
Er464     V469    9.992   .     S
Er464     V471    9.992   .     S
Er464     Ti466    9.993   .     S
Ti465     Ti467    9.992   .     S
Ti465     Ti466    9.992   .     S
Ti465     Er468    9.993   .     S
Ti466     Ti467    9.992   .     S
Er468     V474    9.992   .     S
Er468     V473    9.992   .     S
V469     V471    10.005   .     S
V469     Ce497    10.007   .     S
V470     V472    10.005   .     S
V470     Ce515    10.007   .     S
V472     Ce476    10.007   .     S
V473     V474    10.005   .     S
Ce475     Ce480    10.006   .     S
Ce475     Ce477    10.006   .     S
Ce476     Ce478    10.006   .     S
Ce476     Ce479    10.006   .     S
Ce477     Ce478    10.006   .     S
Ce478     V492    10.007   .     S
Ce479     Ce480    10.006   .     S
Er481     V489    9.992   .     S
Er481     V487    9.992   .     S
Er481     Ti486    9.993   .     S
Er482     V490    9.992   .     S
Er482     V492    9.992   .     S
Er482     Ti485    9.993   .     S
Er483     V488    9.992   .     S
Er483     V491    9.992   .     S
Er483     Ti484    9.993   .     S
Ti484     Ti486    9.992   .     S
Ti484     Ti485    9.992   .     S
Ti485     Ti486    9.992   .     S
V487     V489    10.005   .     S
V488     V491    10.005   .     S
V489     Ce512    10.007   .     S
V490     V492    10.005   .     S
V491     Ce529    10.007   .     S
Ce493     Ce498    10.006   .     S
Ce493     Ce495    10.006   .     S
Ce494     Ce495    10.006   .     S
Ce494     Ce496    10.006   .     S
Ce494     V507    10.007   .     S
Ce496     Ce497    10.006   .     S
Ce497     Ce498    10.006   .     S
Er499     V510    9.992   .     S
Er499     V508    9.992   .     S
Er499     Ti501    9.993   .     S
Er500     V505    9.992   .     S
Er500     V507    9.992   .     S
Er500     Ti502    9.993   .     S
Ti501     Ti503    9.992   .     S
Ti501     Ti502    9.992   .     S
Ti502     Ti503    9.992   .     S
Ti503     Er504    9.993   .     S
Er504     V506    9.992   .     S
Er504     V509    9.992   .     S
V505     V507    10.005   .     S
V506     V509    10.005   .     S
V508     V510    10.005   .     S
V508     Ce514    10.007   .     S
Ce511     Ce513    10.006   .     S
Ce511     Ce512    10.006   .     S
Ce512     Ce515    10.006   .     S
Ce513     Ce514    10.006   .     S
Ce514     Ce516    10.006   .     S
Ce515     Ce516    10.006   .     S
Ce517     Ce522    10.006   1_554     S
Ce517     Ce519    10.006   .     S
Ce518     Ce519    10.006   .     S
Ce518     Ce520    10.006   1_554     S
Ce520     Ce518    10.006   1_556     S
Ce520     Ce521    10.006   .     S
Ce520     V569    10.007   .     S
Ce521     Ce522    10.006   .     S
Ce522     Ce517    10.006   1_556     S
Ce522     V546    10.007   .     S
Ce523     Ce528    10.006   1_545     S
Ce523     Ce524    10.006   .     S
Ce524     Ce525    10.006   .     S
Ce525     Ce526    10.006   1_545     S
Ce526     Ce525    10.006   1_565     S
Ce526     Ce527    10.006   .     S
Ce526     V545    10.007   .     S
Ce527     Ce528    10.006   .     S
Ce528     Ce523    10.006   1_565     S
Ce528     V558    10.007   .     S
Ce529     Ce532    10.006   .     S
Ce529     Ce530    10.006   .     S
Ce530     Ce533    10.006   1_655     S
Ce530     V570    10.007   .     S
Ce531     Ce534    10.006   .     S
Ce531     Ce532    10.006   1_455     S
Ce532     Ce531    10.006   1_655     S
Ce532     V557    10.007   .     S
Ce533     Ce530    10.006   1_455     S
Ce533     Ce534    10.006   .     S
Er535     V544    9.992   1_554     S
Er535     V541    9.992   .     S
Er535     Ti539    9.993   .     S
Er536     V546    9.992   .     S
Er536     V542    9.992   .     S
Er536     Ti538    9.993   .     S
Er537     V545    9.992   1_545     S
Er537     V543    9.992   .     S
Er537     Ti540    9.993   .     S
Ti538     Ti539    9.992   1_546     S
Ti538     Ti540    9.992   1_556     S
Ti539     Ti538    9.992   1_564     S
Ti539     Ti540    9.992   1_565     S
Ti540     Ti538    9.992   1_554     S
Ti540     Ti539    9.992   1_545     S
V541     V544    10.005   1_554     S
V542     V546    10.005   .     S
V543     V545    10.005   1_545     S
V544     Er535    9.992   1_556     S
V544     V541    10.005   1_556     S
V544     Ce574    10.007   .     S
V545     Er537    9.992   1_565     S
V545     V543    10.005   1_565     S
Er547     V556    9.992   1_545     S
Er547     V553    9.992   .     S
Er547     Ti552    9.993   .     S
Er548     V558    9.992   .     S
Er548     V554    9.992   .     S
Er548     Ti551    9.993   .     S
Er549     V557    9.992   1_455     S
Er549     V555    9.992   .     S
Er549     Ti550    9.993   .     S
Ti550     Ti552    9.992   1_455     S
Ti550     Ti551    9.992   1_545     S
Ti551     Ti552    9.992   1_465     S
Ti551     Ti550    9.992   1_565     S
Ti552     Ti550    9.992   1_655     S
Ti552     Ti551    9.992   1_645     S
V553     V556    10.005   1_545     S
V554     V558    10.005   .     S
V555     V557    10.005   1_455     S
V556     Er547    9.992   1_565     S
V556     V553    10.005   1_565     S
V556     Ce572    10.007   .     S
V557     Er549    9.992   1_655     S
V557     V555    10.005   1_655     S
Er559     V568    9.992   1_455     S
Er559     V565    9.992   .     S
Er559     Ti563    9.993   .     S
Er560     V570    9.992   .     S
Er560     V566    9.992   .     S
Er560     Ti562    9.993   .     S
Er561     V569    9.992   1_554     S
Er561     V567    9.992   .     S
Er561     Ti564    9.993   .     S
Ti562     Ti563    9.992   1_654     S
Ti562     Ti564    9.992   1_655     S
Ti563     Ti562    9.992   1_456     S
Ti563     Ti564    9.992   1_556     S
Ti564     Ti562    9.992   1_455     S
Ti564     Ti563    9.992   1_554     S
V565     V568    10.005   1_455     S
V566     V570    10.005   .     S
V567     V569    10.005   1_554     S
V568     Er559    9.992   1_655     S
V568     V565    10.005   1_655     S
V568     Ce576    10.007   .     S
V569     Er561    9.992   1_556     S
V569     V567    10.005   1_556     S
Ce571     Ce576    10.006   1_554     S
Ce571     Ce572    10.006   1_545     S
Ce572     Ce571    10.006   1_565     S
Ce572     Ce573    10.006   1_655     S
Ce573     Ce572    10.006   1_455     S
Ce573     Ce574    10.006   1_554     S
Ce574     Ce573    10.006   1_556     S
Ce574     Ce575    10.006   1_565     S
Ce575     Ce574    10.006   1_545     S
Ce575     Ce576    10.006   1_455     S
Ce576     Ce571    10.006   1_556     S
Ce576     Ce575    10.006   1_655     S
