data_epr
_audit_creation_date              2020-02-02
_audit_creation_method            'Pymatgen'
_symmetry_space_group_name_H-M    'P1'
_symmetry_Int_Tables_number       1
loop_
_symmetry_equiv_pos_as_xyz
  x,y,z
_cell_length_a                    28.2843
_cell_length_b                    28.2843
_cell_length_c                    28.2843
_cell_angle_alpha                 90.0
_cell_angle_beta                 90.0
_cell_angle_gamma                 90.0
loop_
_atom_site_label
_atom_site_type_symbol
_atom_site_fract_x
_atom_site_fract_y
_atom_site_fract_z
V1     V     0.0   0.25   0.5
Er2     Er     0.25   0.25   0.25
Er3     Er     0.75   0.25   0.75
V4     V     0.75   0.5   0.0
Er5     Er     0.75   0.75   0.25
V6     V     0.0   0.75   0.5
Er7     Er     0.25   0.75   0.75
V8     V     0.25   0.5   0.0
V9     V     0.5   0.0   0.25
V10     V     0.5   0.0   0.75
Er11     Er     0.75   0.75   0.75
Er12     Er     0.75   0.25   0.25
Er13     Er     0.25   0.25   0.75
Er14     Er     0.25   0.75   0.25
Ti15     Ti     0.0   0.5   0.25
Ti16     Ti     0.0   0.5   0.75
Ti17     Ti     0.25   0.0   0.5
Ti18     Ti     0.5   0.75   0.0
Ti19     Ti     0.75   0.0   0.5
Ti20     Ti     0.5   0.25   0.0
loop_
_geom_bond_atom_site_label_1
_geom_bond_atom_site_label_2
_geom_bond_distance
_geom_bond_site_symmetry_2
_ccdc_geom_bond_type
V1     Er2    10.0   .     S
V1     Er3    10.0   1_455     S
V1     Er13    10.0   .     S
V1     Er12    10.0   1_455     S
V1     Ti15    10.0   .     S
V1     Ti16    10.0   .     S
V1     Ti17    10.0   .     S
V1     Ti19    10.0   1_455     S
Er2     V8    10.0   .     S
Er2     V9    10.0   .     S
Er3     V1    10.0   1_655     S
Er3     V4    10.0   1_556     S
Er3     V10    10.0   .     S
V4     Er3    10.0   1_554     S
V4     Er5    10.0   .     S
V4     Er12    10.0   .     S
V4     Er11    10.0   1_554     S
V4     Ti16    10.0   1_654     S
V4     Ti15    10.0   1_655     S
V4     Ti20    10.0   .     S
V4     Ti18    10.0   .     S
Er5     V6    10.0   1_655     S
Er5     V9    10.0   1_565     S
V6     Er5    10.0   1_455     S
V6     Er7    10.0   .     S
V6     Er11    10.0   1_455     S
V6     Er14    10.0   .     S
V6     Ti15    10.0   .     S
V6     Ti16    10.0   .     S
V6     Ti19    10.0   1_465     S
V6     Ti17    10.0   1_565     S
Er7     V8    10.0   1_556     S
Er7     V10    10.0   1_565     S
V8     Er7    10.0   1_554     S
V8     Er14    10.0   .     S
V8     Er13    10.0   1_554     S
V8     Ti16    10.0   1_554     S
V8     Ti15    10.0   .     S
V8     Ti20    10.0   .     S
V8     Ti18    10.0   .     S
V9     Er5    10.0   1_545     S
V9     Er12    10.0   .     S
V9     Er14    10.0   1_545     S
V9     Ti17    10.0   .     S
V9     Ti19    10.0   .     S
V9     Ti18    10.0   1_545     S
V9     Ti20    10.0   .     S
V10     Er7    10.0   1_545     S
V10     Er11    10.0   1_545     S
V10     Er13    10.0   .     S
V10     Ti18    10.0   1_546     S
V10     Ti20    10.0   1_556     S
V10     Ti17    10.0   .     S
V10     Ti19    10.0   .     S
Er11     V6    10.0   1_655     S
Er11     V4    10.0   1_556     S
Er11     V10    10.0   1_565     S
Er12     V1    10.0   1_655     S
Er13     V8    10.0   1_556     S
Er14     V9    10.0   1_565     S
Ti15     V4    10.0   1_455     S
Ti16     V8    10.0   1_556     S
Ti16     V4    10.0   1_456     S
Ti17     V6    10.0   1_545     S
Ti18     V10    10.0   1_564     S
Ti18     V9    10.0   1_565     S
Ti19     V6    10.0   1_645     S
Ti19     V1    10.0   1_655     S
Ti20     V10    10.0   1_554     S
