data_epw
_audit_creation_date              2020-02-02
_audit_creation_method            'Pymatgen'
_symmetry_space_group_name_H-M    'P1'
_symmetry_Int_Tables_number       1
loop_
_symmetry_equiv_pos_as_xyz
  x,y,z
_cell_length_a                    48.9898
_cell_length_b                    48.9898
_cell_length_c                    48.9898
_cell_angle_alpha                 90.0
_cell_angle_beta                 90.0
_cell_angle_gamma                 90.0
loop_
_atom_site_label
_atom_site_type_symbol
_atom_site_fract_x
_atom_site_fract_y
_atom_site_fract_z
V1     V     0.75   0.0   0.75
V2     V     0.75   0.75   0.0
V3     V     0.0   0.75   0.75
V4     V     0.0   0.25   0.25
V5     V     0.0   0.0   0.0
V6     V     0.75   0.5   0.25
V7     V     0.5   0.5   0.0
V8     V     0.5   0.0   0.5
V9     V     0.5   0.25   0.75
V10     V     0.5   0.75   0.25
V11     V     0.25   0.25   0.0
V12     V     0.25   0.5   0.75
V13     V     0.0   0.5   0.5
V14     V     0.25   0.75   0.5
V15     V     0.75   0.25   0.5
Ti16     Ti     0.5834   0.9166   0.8334
Ti17     Ti     0.5834   0.8334   0.9166
Ti18     Ti     0.1666   0.9166   0.9166
Ti19     Ti     0.1666   0.8334   0.8334
Ti20     Ti     0.8334   0.5834   0.9166
Ti21     Ti     0.9166   0.5834   0.8334
Ti22     Ti     0.9166   0.1666   0.9166
Ti23     Ti     0.8334   0.1666   0.8334
Ti24     Ti     0.8334   0.9166   0.5834
Ti25     Ti     0.9166   0.8334   0.5834
Ti26     Ti     0.9166   0.9166   0.1666
Ti27     Ti     0.8334   0.8334   0.1666
Ti28     Ti     0.4166   0.0834   0.1666
Ti29     Ti     0.4166   0.1666   0.0834
Ti30     Ti     0.1666   0.4166   0.0834
Ti31     Ti     0.0834   0.4166   0.1666
Ti32     Ti     0.0834   0.1666   0.4166
Ti33     Ti     0.1666   0.0834   0.4166
Ti34     Ti     0.4166   0.6666   0.5834
Ti35     Ti     0.4166   0.5834   0.6666
Ti36     Ti     0.5834   0.3334   0.4166
Ti37     Ti     0.5834   0.4166   0.3334
Ti38     Ti     0.6666   0.4166   0.5834
Ti39     Ti     0.5834   0.4166   0.6666
Ti40     Ti     0.3334   0.5834   0.4166
Ti41     Ti     0.4166   0.5834   0.3334
Ti42     Ti     0.5834   0.6666   0.4166
Ti43     Ti     0.6666   0.5834   0.4166
Ti44     Ti     0.4166   0.3334   0.5834
Ti45     Ti     0.3334   0.4166   0.5834
Ti46     Ti     0.1666   0.4166   0.4166
Ti47     Ti     0.1666   0.3334   0.3334
Ti48     Ti     0.4166   0.4166   0.1666
Ti49     Ti     0.3334   0.3334   0.1666
Ti50     Ti     0.3334   0.1666   0.3334
Ti51     Ti     0.4166   0.1666   0.4166
Ti52     Ti     0.1666   0.3334   0.6666
Ti53     Ti     0.0834   0.3334   0.5834
Ti54     Ti     0.3334   0.0834   0.5834
Ti55     Ti     0.3334   0.1666   0.6666
Ti56     Ti     0.1666   0.6666   0.3334
Ti57     Ti     0.0834   0.5834   0.3334
Ti58     Ti     0.5834   0.0834   0.3334
Ti59     Ti     0.6666   0.1666   0.3334
Ti60     Ti     0.3334   0.5834   0.0834
Ti61     Ti     0.3334   0.6666   0.1666
Ti62     Ti     0.5834   0.3334   0.0834
Ti63     Ti     0.6666   0.3334   0.1666
Ti64     Ti     0.1666   0.1666   0.8334
Ti65     Ti     0.0834   0.0834   0.8334
Ti66     Ti     0.3334   0.9166   0.0834
Ti67     Ti     0.4166   0.8334   0.0834
Ti68     Ti     0.8334   0.1666   0.1666
Ti69     Ti     0.8334   0.0834   0.0834
Ti70     Ti     0.0834   0.3334   0.9166
Ti71     Ti     0.0834   0.4166   0.8334
Ti72     Ti     0.9166   0.0834   0.3334
Ti73     Ti     0.8334   0.0834   0.4166
Ti74     Ti     0.8334   0.4166   0.0834
Ti75     Ti     0.9166   0.3334   0.0834
Ti76     Ti     0.4166   0.0834   0.8334
Ti77     Ti     0.3334   0.0834   0.9166
Ti78     Ti     0.0834   0.8334   0.4166
Ti79     Ti     0.0834   0.9166   0.3334
Ti80     Ti     0.1666   0.8334   0.1666
Ti81     Ti     0.0834   0.8334   0.0834
Ti82     Ti     0.9166   0.0834   0.6666
Ti83     Ti     0.9166   0.1666   0.5834
Ti84     Ti     0.9166   0.4166   0.6666
Ti85     Ti     0.8334   0.3334   0.6666
Ti86     Ti     0.1666   0.9166   0.5834
Ti87     Ti     0.0834   0.9166   0.6666
Ti88     Ti     0.3334   0.8334   0.6666
Ti89     Ti     0.4166   0.9166   0.6666
Ti90     Ti     0.5834   0.1666   0.9166
Ti91     Ti     0.6666   0.0834   0.9166
Ti92     Ti     0.6666   0.3334   0.8334
Ti93     Ti     0.6666   0.4166   0.9166
Ti94     Ti     0.5834   0.5834   0.8334
Ti95     Ti     0.6666   0.6666   0.8334
Ti96     Ti     0.8334   0.5834   0.5834
Ti97     Ti     0.8334   0.6666   0.6666
Ti98     Ti     0.0834   0.6666   0.9166
Ti99     Ti     0.1666   0.5834   0.9166
Ti100     Ti     0.4166   0.6666   0.9166
Ti101     Ti     0.3334   0.6666   0.8334
Ti102     Ti     0.5834   0.8334   0.5834
Ti103     Ti     0.6666   0.8334   0.6666
Ti104     Ti     0.5834   0.9166   0.1666
Ti105     Ti     0.6666   0.9166   0.0834
Ti106     Ti     0.6666   0.9166   0.4166
Ti107     Ti     0.6666   0.8334   0.3334
Ti108     Ti     0.9166   0.5834   0.1666
Ti109     Ti     0.9166   0.6666   0.0834
Ti110     Ti     0.8334   0.6666   0.3334
Ti111     Ti     0.9166   0.6666   0.4166
Er112     Er     0.0   0.75   0.25
Er113     Er     0.75   0.75   0.5
Er114     Er     0.75   0.0   0.25
Er115     Er     0.5   0.75   0.75
Er116     Er     0.25   0.75   0.0
Er117     Er     0.75   0.5   0.75
Er118     Er     0.75   0.25   0.0
Er119     Er     0.25   0.0   0.75
Er120     Er     0.0   0.25   0.75
Er121     Er     0.0   0.0   0.5
Er122     Er     0.5   0.0   0.0
Er123     Er     0.0   0.5   0.0
Er124     Er     0.25   0.25   0.5
Er125     Er     0.5   0.25   0.25
Er126     Er     0.25   0.5   0.25
Er127     Er     0.5   0.5   0.5
V128     V     0.25   0.0   0.25
loop_
_geom_bond_atom_site_label_1
_geom_bond_atom_site_label_2
_geom_bond_distance
_geom_bond_site_symmetry_2
_ccdc_geom_bond_type
V1     Ti23    10.0   .     S
V1     Ti24    10.0   1_545     S
V1     Ti16    10.0   1_545     S
V1     Ti103    10.0   1_545     S
V1     Ti91    10.0   .     S
V1     Ti82    10.0   .     S
V2     Ti27    10.0   .     S
V2     Ti20    10.0   1_554     S
V2     Ti95    10.0   1_554     S
V2     Ti17    10.0   1_554     S
V2     Ti105    10.0   .     S
V2     Ti109    10.0   .     S
V3     Ti19    10.0   .     S
V3     Ti25    10.0   1_455     S
V3     Ti21    10.0   1_455     S
V3     Ti97    10.0   1_455     S
V3     Ti87    10.0   .     S
V3     Ti98    10.0   .     S
V4     Ti75    10.0   1_455     S
V4     Ti72    10.0   1_455     S
V4     Ti32    10.0   .     S
V4     Ti31    10.0   .     S
V4     Ti47    10.0   .     S
V4     Ti68    10.0   1_455     S
V5     Ti26    10.0   1_445     S
V5     Ti22    10.0   1_454     S
V5     Ti18    10.0   1_544     S
V5     Ti65    10.0   1_554     S
V5     Ti69    10.0   1_455     S
V5     Ti81    10.0   1_545     S
V6     Ti110    10.0   .     S
V6     Ti74    10.0   .     S
V6     Ti43    10.0   .     S
V6     Ti63    10.0   .     S
V6     Ti37    10.0   .     S
V6     Ti108    10.0   .     S
V7     Ti93    10.0   1_554     S
V7     Ti100    10.0   1_554     S
V7     Ti60    10.0   .     S
V7     Ti62    10.0   .     S
V7     Ti48    10.0   .     S
V7     Ti94    10.0   1_554     S
V8     Ti89    10.0   1_545     S
V8     Ti106    10.0   1_545     S
V8     Ti58    10.0   .     S
V8     Ti54    10.0   .     S
V8     Ti51    10.0   .     S
V8     Ti102    10.0   1_545     S
V9     Ti92    10.0   .     S
V9     Ti76    10.0   .     S
V9     Ti39    10.0   .     S
V9     Ti55    10.0   .     S
V9     Ti90    10.0   .     S
V9     Ti44    10.0   .     S
V10     Ti61    10.0   .     S
V10     Ti107    10.0   .     S
V10     Ti42    10.0   .     S
V10     Ti67    10.0   .     S
V10     Ti41    10.0   .     S
V10     Ti104    10.0   .     S
V11     Ti70    10.0   1_554     S
V11     Ti77    10.0   1_554     S
V11     Ti30    10.0   .     S
V11     Ti29    10.0   .     S
V11     Ti49    10.0   .     S
V11     Ti64    10.0   1_554     S
V12     Ti52    10.0   .     S
V12     Ti71    10.0   .     S
V12     Ti101    10.0   .     S
V12     Ti35    10.0   .     S
V12     Ti99    10.0   .     S
V12     Ti45    10.0   .     S
V13     Ti84    10.0   1_455     S
V13     Ti111    10.0   1_455     S
V13     Ti57    10.0   .     S
V13     Ti53    10.0   .     S
V13     Ti46    10.0   .     S
V13     Ti96    10.0   1_455     S
V14     Ti78    10.0   .     S
V14     Ti88    10.0   .     S
V14     Ti56    10.0   .     S
V14     Ti34    10.0   .     S
V14     Ti86    10.0   .     S
V14     Ti40    10.0   .     S
V15     Ti59    10.0   .     S
V15     Ti85    10.0   .     S
V15     Ti73    10.0   .     S
V15     Ti38    10.0   .     S
V15     Ti83    10.0   .     S
V15     Ti36    10.0   .     S
Ti16     V1    10.0   1_565     S
Ti16     Er115    10.0   .     S
Ti16     Er122    10.0   1_566     S
Ti17     V2    10.0   1_556     S
Ti17     Er115    10.0   .     S
Ti17     Er122    10.0   1_566     S
Ti18     V5    10.0   1_566     S
Ti18     Er116    10.0   1_556     S
Ti18     Er119    10.0   1_565     S
Ti19     Er116    10.0   1_556     S
Ti19     Er119    10.0   1_565     S
Ti20     V2    10.0   1_556     S
Ti20     Er117    10.0   .     S
Ti20     Er123    10.0   1_656     S
Ti21     V3    10.0   1_655     S
Ti21     Er117    10.0   .     S
Ti21     Er123    10.0   1_656     S
Ti22     V5    10.0   1_656     S
Ti22     Er118    10.0   1_556     S
Ti22     Er120    10.0   1_655     S
Ti23     Er118    10.0   1_556     S
Ti23     Er120    10.0   1_655     S
Ti24     V1    10.0   1_565     S
Ti24     Er113    10.0   .     S
Ti24     Er121    10.0   1_665     S
Ti25     V3    10.0   1_655     S
Ti25     Er113    10.0   .     S
Ti25     Er121    10.0   1_665     S
Ti26     V5    10.0   1_665     S
Ti26     Er114    10.0   1_565     S
Ti26     Er112    10.0   1_655     S
Ti27     Er114    10.0   1_565     S
Ti27     Er112    10.0   1_655     S
Ti28     Er122    10.0   .     S
Ti28     Er125    10.0   .     S
Ti28     V128    10.0   .     S
Ti29     Er122    10.0   .     S
Ti29     Er125    10.0   .     S
Ti30     Er123    10.0   .     S
Ti30     Er126    10.0   .     S
Ti31     Er123    10.0   .     S
Ti31     Er126    10.0   .     S
Ti32     Er121    10.0   .     S
Ti32     Er124    10.0   .     S
Ti33     Er121    10.0   .     S
Ti33     Er124    10.0   .     S
Ti33     V128    10.0   .     S
Ti34     Er115    10.0   .     S
Ti34     Er127    10.0   .     S
Ti35     Er115    10.0   .     S
Ti35     Er127    10.0   .     S
Ti36     Er127    10.0   .     S
Ti36     Er125    10.0   .     S
Ti37     Er127    10.0   .     S
Ti37     Er125    10.0   .     S
Ti38     Er127    10.0   .     S
Ti38     Er117    10.0   .     S
Ti39     Er127    10.0   .     S
Ti39     Er117    10.0   .     S
Ti40     Er126    10.0   .     S
Ti40     Er127    10.0   .     S
Ti41     Er126    10.0   .     S
Ti41     Er127    10.0   .     S
Ti42     Er113    10.0   .     S
Ti42     Er127    10.0   .     S
Ti43     Er113    10.0   .     S
Ti43     Er127    10.0   .     S
Ti44     Er127    10.0   .     S
Ti44     Er124    10.0   .     S
Ti45     Er127    10.0   .     S
Ti45     Er124    10.0   .     S
Ti46     Er124    10.0   .     S
Ti46     Er126    10.0   .     S
Ti47     Er124    10.0   .     S
Ti47     Er126    10.0   .     S
Ti48     Er126    10.0   .     S
Ti48     Er125    10.0   .     S
Ti49     Er126    10.0   .     S
Ti49     Er125    10.0   .     S
Ti50     Er125    10.0   .     S
Ti50     Er124    10.0   .     S
Ti50     V128    10.0   .     S
Ti51     Er125    10.0   .     S
Ti51     Er124    10.0   .     S
Ti52     Er124    10.0   .     S
Ti52     Er120    10.0   .     S
Ti53     Er124    10.0   .     S
Ti53     Er120    10.0   .     S
Ti54     Er124    10.0   .     S
Ti54     Er119    10.0   .     S
Ti55     Er124    10.0   .     S
Ti55     Er119    10.0   .     S
Ti56     Er126    10.0   .     S
Ti56     Er112    10.0   .     S
Ti57     Er126    10.0   .     S
Ti57     Er112    10.0   .     S
Ti58     Er125    10.0   .     S
Ti58     Er114    10.0   .     S
Ti59     Er125    10.0   .     S
Ti59     Er114    10.0   .     S
Ti60     Er126    10.0   .     S
Ti60     Er116    10.0   .     S
Ti61     Er126    10.0   .     S
Ti61     Er116    10.0   .     S
Ti62     Er125    10.0   .     S
Ti62     Er118    10.0   .     S
Ti63     Er125    10.0   .     S
Ti63     Er118    10.0   .     S
Ti64     V11    10.0   1_556     S
Ti64     Er120    10.0   .     S
Ti64     Er119    10.0   .     S
Ti65     V5    10.0   1_556     S
Ti65     Er120    10.0   .     S
Ti65     Er119    10.0   .     S
Ti66     Er116    10.0   .     S
Ti66     Er122    10.0   1_565     S
Ti66     V128    10.0   1_565     S
Ti67     Er116    10.0   .     S
Ti67     Er122    10.0   1_565     S
Ti68     V4    10.0   1_655     S
Ti68     Er118    10.0   .     S
Ti68     Er114    10.0   .     S
Ti69     V5    10.0   1_655     S
Ti69     Er118    10.0   .     S
Ti69     Er114    10.0   .     S
Ti70     V11    10.0   1_556     S
Ti70     Er120    10.0   .     S
Ti70     Er123    10.0   1_556     S
Ti71     Er120    10.0   .     S
Ti71     Er123    10.0   1_556     S
Ti72     V4    10.0   1_655     S
Ti72     Er114    10.0   .     S
Ti72     Er121    10.0   1_655     S
Ti73     Er114    10.0   .     S
Ti73     Er121    10.0   1_655     S
Ti74     Er123    10.0   1_655     S
Ti74     Er118    10.0   .     S
Ti75     V4    10.0   1_655     S
Ti75     Er123    10.0   1_655     S
Ti75     Er118    10.0   .     S
Ti76     Er119    10.0   .     S
Ti76     Er122    10.0   1_556     S
Ti77     V11    10.0   1_556     S
Ti77     Er119    10.0   .     S
Ti77     Er122    10.0   1_556     S
Ti78     Er112    10.0   .     S
Ti78     Er121    10.0   1_565     S
Ti79     Er112    10.0   .     S
Ti79     Er121    10.0   1_565     S
Ti79     V128    10.0   1_565     S
Ti80     Er116    10.0   .     S
Ti80     Er112    10.0   .     S
Ti80     V128    10.0   1_565     S
Ti81     V5    10.0   1_565     S
Ti81     Er116    10.0   .     S
Ti81     Er112    10.0   .     S
Ti82     Er121    10.0   1_655     S
Ti82     Er120    10.0   1_655     S
Ti83     Er121    10.0   1_655     S
Ti83     Er120    10.0   1_655     S
Ti84     V13    10.0   1_655     S
Ti84     Er117    10.0   .     S
Ti84     Er120    10.0   1_655     S
Ti85     Er117    10.0   .     S
Ti85     Er120    10.0   1_655     S
Ti86     Er121    10.0   1_565     S
Ti86     Er119    10.0   1_565     S
Ti87     Er121    10.0   1_565     S
Ti87     Er119    10.0   1_565     S
Ti88     Er119    10.0   1_565     S
Ti88     Er115    10.0   .     S
Ti89     V8    10.0   1_565     S
Ti89     Er119    10.0   1_565     S
Ti89     Er115    10.0   .     S
Ti90     Er122    10.0   1_556     S
Ti90     Er118    10.0   1_556     S
Ti91     Er122    10.0   1_556     S
Ti91     Er118    10.0   1_556     S
Ti92     Er118    10.0   1_556     S
Ti92     Er117    10.0   .     S
Ti93     V7    10.0   1_556     S
Ti93     Er118    10.0   1_556     S
Ti93     Er117    10.0   .     S
Ti94     V7    10.0   1_556     S
Ti94     Er115    10.0   .     S
Ti94     Er117    10.0   .     S
Ti95     V2    10.0   1_556     S
Ti95     Er115    10.0   .     S
Ti95     Er117    10.0   .     S
Ti96     V13    10.0   1_655     S
Ti96     Er117    10.0   .     S
Ti96     Er113    10.0   .     S
Ti97     V3    10.0   1_655     S
Ti97     Er117    10.0   .     S
Ti97     Er113    10.0   .     S
Ti98     Er123    10.0   1_556     S
Ti98     Er116    10.0   1_556     S
Ti99     Er123    10.0   1_556     S
Ti99     Er116    10.0   1_556     S
Ti100     V7    10.0   1_556     S
Ti100     Er115    10.0   .     S
Ti100     Er116    10.0   1_556     S
Ti101     Er115    10.0   .     S
Ti101     Er116    10.0   1_556     S
Ti102     V8    10.0   1_565     S
Ti102     Er115    10.0   .     S
Ti102     Er113    10.0   .     S
Ti103     V1    10.0   1_565     S
Ti103     Er115    10.0   .     S
Ti103     Er113    10.0   .     S
Ti104     Er114    10.0   1_565     S
Ti104     Er122    10.0   1_565     S
Ti105     Er114    10.0   1_565     S
Ti105     Er122    10.0   1_565     S
Ti106     V8    10.0   1_565     S
Ti106     Er113    10.0   .     S
Ti106     Er114    10.0   1_565     S
Ti107     Er113    10.0   .     S
Ti107     Er114    10.0   1_565     S
Ti108     Er112    10.0   1_655     S
Ti108     Er123    10.0   1_655     S
Ti109     Er112    10.0   1_655     S
Ti109     Er123    10.0   1_655     S
Ti110     Er112    10.0   1_655     S
Ti110     Er113    10.0   .     S
Ti111     V13    10.0   1_655     S
Ti111     Er112    10.0   1_655     S
Ti111     Er113    10.0   .     S
Er112     Ti27    10.0   1_455     S
Er112     Ti26    10.0   1_455     S
Er112     Ti108    10.0   1_455     S
Er112     Ti109    10.0   1_455     S
Er112     Ti111    10.0   1_455     S
Er112     Ti110    10.0   1_455     S
Er114     Ti27    10.0   1_545     S
Er114     Ti26    10.0   1_545     S
Er114     Ti105    10.0   1_545     S
Er114     Ti104    10.0   1_545     S
Er114     Ti106    10.0   1_545     S
Er114     Ti107    10.0   1_545     S
Er116     Ti18    10.0   1_554     S
Er116     Ti19    10.0   1_554     S
Er116     Ti98    10.0   1_554     S
Er116     Ti99    10.0   1_554     S
Er116     Ti101    10.0   1_554     S
Er116     Ti100    10.0   1_554     S
Er118     Ti22    10.0   1_554     S
Er118     Ti23    10.0   1_554     S
Er118     Ti91    10.0   1_554     S
Er118     Ti90    10.0   1_554     S
Er118     Ti92    10.0   1_554     S
Er118     Ti93    10.0   1_554     S
Er119     Ti19    10.0   1_545     S
Er119     Ti18    10.0   1_545     S
Er119     Ti86    10.0   1_545     S
Er119     Ti87    10.0   1_545     S
Er119     Ti88    10.0   1_545     S
Er119     Ti89    10.0   1_545     S
Er120     Ti22    10.0   1_455     S
Er120     Ti23    10.0   1_455     S
Er120     Ti82    10.0   1_455     S
Er120     Ti83    10.0   1_455     S
Er120     Ti85    10.0   1_455     S
Er120     Ti84    10.0   1_455     S
Er121     Ti25    10.0   1_445     S
Er121     Ti24    10.0   1_445     S
Er121     Ti72    10.0   1_455     S
Er121     Ti73    10.0   1_455     S
Er121     Ti79    10.0   1_545     S
Er121     Ti78    10.0   1_545     S
Er121     Ti82    10.0   1_455     S
Er121     Ti83    10.0   1_455     S
Er121     Ti87    10.0   1_545     S
Er121     Ti86    10.0   1_545     S
Er122     Ti16    10.0   1_544     S
Er122     Ti17    10.0   1_544     S
Er122     Ti66    10.0   1_545     S
Er122     Ti67    10.0   1_545     S
Er122     Ti77    10.0   1_554     S
Er122     Ti76    10.0   1_554     S
Er122     Ti91    10.0   1_554     S
Er122     Ti90    10.0   1_554     S
Er122     Ti105    10.0   1_545     S
Er122     Ti104    10.0   1_545     S
Er123     Ti21    10.0   1_454     S
Er123     Ti20    10.0   1_454     S
Er123     Ti70    10.0   1_554     S
Er123     Ti71    10.0   1_554     S
Er123     Ti75    10.0   1_455     S
Er123     Ti74    10.0   1_455     S
Er123     Ti98    10.0   1_554     S
Er123     Ti99    10.0   1_554     S
Er123     Ti109    10.0   1_455     S
Er123     Ti108    10.0   1_455     S
V128     Ti79    10.0   1_545     S
V128     Ti66    10.0   1_545     S
V128     Ti80    10.0   1_545     S
