data_epya
_audit_creation_date              2020-02-02
_audit_creation_method            'Pymatgen'
_symmetry_space_group_name_H-M    'P1'
_symmetry_Int_Tables_number       1
loop_
_symmetry_equiv_pos_as_xyz
  x,y,z
_cell_length_a                    175.6
_cell_length_b                    175.6
_cell_length_c                    175.6
_cell_angle_alpha                 90.0
_cell_angle_beta                 90.0
_cell_angle_gamma                 90.0
loop_
_atom_site_label
_atom_site_type_symbol
_atom_site_fract_x
_atom_site_fract_y
_atom_site_fract_z
V1     V     0.5403   0.5   0.4597
V2     V     0.5403   0.4597   0.5
V3     V     0.5   0.5403   0.4597
V4     V     0.4597   0.5403   0.5
V5     V     0.5   0.4597   0.5403
V6     V     0.4597   0.5   0.5403
V7     V     0.5403   0.25   0.2903
V8     V     0.5403   0.2903   0.25
V9     V     0.5   0.2097   0.2903
V10     V     0.4597   0.2097   0.25
V11     V     0.4597   0.25   0.2097
V12     V     0.5   0.2903   0.2097
V13     V     0.25   0.5403   0.2903
V14     V     0.2903   0.5403   0.25
V15     V     0.2097   0.5   0.2903
V16     V     0.2903   0.5   0.2097
V17     V     0.25   0.4597   0.2097
V18     V     0.2097   0.4597   0.25
V19     V     0.25   0.2903   0.5403
V20     V     0.2903   0.25   0.5403
V21     V     0.2903   0.2097   0.5
V22     V     0.25   0.2097   0.4597
V23     V     0.2097   0.25   0.4597
V24     V     0.2097   0.2903   0.5
V25     V     0.7097   0.0   0.2903
V26     V     0.7097   0.9597   0.25
V27     V     0.7903   0.0   0.2097
V28     V     0.75   0.0403   0.2903
V29     V     0.7903   0.0403   0.25
V30     V     0.75   0.9597   0.2097
V31     V     0.7903   0.5   0.7097
V32     V     0.7903   0.5403   0.75
V33     V     0.75   0.4597   0.7097
V34     V     0.7097   0.4597   0.75
V35     V     0.75   0.5403   0.7903
V36     V     0.7097   0.5   0.7903
V37     V     0.0   0.2903   0.7097
V38     V     0.9597   0.25   0.7097
V39     V     0.9597   0.2097   0.75
V40     V     0.0   0.2097   0.7903
V41     V     0.0403   0.25   0.7903
V42     V     0.0403   0.2903   0.75
V43     V     0.5   0.9597   0.0403
V44     V     0.5   0.0403   0.9597
V45     V     0.4597   0.0   0.0403
V46     V     0.4597   0.0403   0.0
V47     V     0.5403   0.9597   0.0
V48     V     0.5403   0.0   0.9597
V49     V     0.9597   0.5   0.0403
V50     V     0.0403   0.5   0.9597
V51     V     0.0   0.4597   0.0403
V52     V     0.0403   0.4597   0.0
V53     V     0.9597   0.5403   0.0
V54     V     0.0   0.5403   0.9597
V55     V     0.75   0.2097   0.9597
V56     V     0.75   0.2903   0.0403
V57     V     0.7903   0.2097   0.0
V58     V     0.7903   0.25   0.0403
V59     V     0.7097   0.2903   0.0
V60     V     0.7097   0.25   0.9597
V61     V     0.0403   0.9597   0.5
V62     V     0.9597   0.0403   0.5
V63     V     0.0403   0.0   0.4597
V64     V     0.0   0.0403   0.4597
V65     V     0.0   0.9597   0.5403
V66     V     0.9597   0.0   0.5403
V67     V     0.25   0.9597   0.7097
V68     V     0.2903   0.0   0.7097
V69     V     0.2097   0.9597   0.75
V70     V     0.2903   0.0403   0.75
V71     V     0.2097   0.0   0.7903
V72     V     0.25   0.0403   0.7903
V73     V     0.9597   0.7097   0.25
V74     V     0.0   0.7097   0.2903
V75     V     0.0403   0.75   0.2903
V76     V     0.0   0.7903   0.2097
V77     V     0.0403   0.7903   0.25
V78     V     0.9597   0.75   0.2097
V79     V     0.2903   0.7097   0.0
V80     V     0.25   0.7097   0.9597
V81     V     0.2903   0.75   0.0403
V82     V     0.25   0.7903   0.0403
V83     V     0.2097   0.7903   0.0
V84     V     0.2097   0.75   0.9597
V85     V     0.4597   0.7097   0.75
V86     V     0.4597   0.75   0.7097
V87     V     0.5   0.7903   0.7097
V88     V     0.5403   0.7903   0.75
V89     V     0.5   0.7097   0.7903
V90     V     0.5403   0.75   0.7903
V91     V     0.7097   0.75   0.4597
V92     V     0.75   0.7097   0.4597
V93     V     0.7903   0.7097   0.5
V94     V     0.7903   0.75   0.5403
V95     V     0.7097   0.7903   0.5
V96     V     0.75   0.7903   0.5403
Er97     Er     0.0   0.3305   0.6695
Er98     Er     0.3305   0.0   0.6695
Er99     Er     0.6695   0.0   0.3305
Er100     Er     0.3305   0.6695   0.0
Er101     Er     0.6695   0.4195   0.75
Er102     Er     0.0   0.6695   0.3305
Er103     Er     0.75   0.6695   0.4195
Er104     Er     0.4195   0.75   0.6695
Er105     Er     0.5   0.1695   0.3305
Er106     Er     0.1695   0.3305   0.5
Er107     Er     0.6695   0.3305   0.0
Er108     Er     0.1695   0.5   0.3305
Er109     Er     0.5   0.3305   0.1695
Er110     Er     0.25   0.9195   0.6695
Er111     Er     0.9195   0.6695   0.25
Er112     Er     0.8305   0.5   0.6695
Er113     Er     0.25   0.1695   0.4195
Er114     Er     0.1695   0.4195   0.25
Er115     Er     0.3305   0.5805   0.25
Er116     Er     0.6695   0.25   0.9195
Er117     Er     0.9195   0.25   0.6695
Er118     Er     0.25   0.3305   0.5805
Er119     Er     0.75   0.0805   0.3305
Er120     Er     0.1695   0.0   0.8305
Er121     Er     0.3305   0.5   0.1695
Er122     Er     0.3305   0.75   0.0805
Er123     Er     0.9195   0.75   0.1695
Er124     Er     0.1695   0.9195   0.75
Er125     Er     0.75   0.1695   0.9195
Er126     Er     0.0805   0.3305   0.75
Er127     Er     0.5805   0.25   0.3305
Er128     Er     0.5   0.9195   0.0805
Er129     Er     0.9195   0.5   0.0805
Er130     Er     0.25   0.4195   0.1695
Er131     Er     0.5   0.0805   0.9195
Er132     Er     0.0805   0.5   0.9195
Er133     Er     0.3305   0.1695   0.5
Er134     Er     0.0805   0.9195   0.5
Er135     Er     0.4195   0.1695   0.25
Er136     Er     0.5   0.8305   0.6695
Er137     Er     0.5   0.6695   0.8305
Er138     Er     0.6695   0.5   0.8305
Er139     Er     0.6695   0.8305   0.5
Er140     Er     0.8305   0.6695   0.5
Er141     Er     0.25   0.6695   0.9195
Er142     Er     0.4195   0.6695   0.75
Er143     Er     0.75   0.4195   0.6695
Er144     Er     0.6695   0.75   0.4195
Er145     Er     0.6695   0.9195   0.25
Er146     Er     0.5   0.4195   0.5805
Er147     Er     0.5805   0.9195   0.0
Er148     Er     0.4195   0.5   0.5805
Er149     Er     0.9195   0.5805   0.0
Er150     Er     0.8305   0.1695   0.0
Er151     Er     0.5805   0.0   0.9195
Er152     Er     0.5   0.5805   0.4195
Er153     Er     0.9195   0.0   0.5805
Er154     Er     0.0   0.9195   0.5805
Er155     Er     0.5805   0.5   0.4195
Er156     Er     0.1695   0.25   0.4195
Er157     Er     0.0   0.5805   0.9195
Er158     Er     0.5805   0.4195   0.5
Er159     Er     0.5805   0.8305   0.75
Er160     Er     0.8305   0.75   0.5805
Er161     Er     0.75   0.5805   0.8305
Er162     Er     0.0   0.8305   0.1695
Er163     Er     0.8305   0.0805   0.25
Er164     Er     0.25   0.8305   0.0805
Er165     Er     0.0805   0.75   0.3305
Er166     Er     0.1695   0.8305   0.0
Er167     Er     0.4195   0.25   0.1695
Er168     Er     0.0   0.1695   0.8305
Er169     Er     0.75   0.3305   0.0805
Er170     Er     0.3305   0.0805   0.75
Er171     Er     0.5805   0.3305   0.25
Er172     Er     0.3305   0.25   0.5805
Er173     Er     0.4195   0.0805   0.0
Er174     Er     0.0805   0.25   0.8305
Er175     Er     0.0   0.4195   0.0805
Er176     Er     0.0805   0.0   0.4195
Er177     Er     0.0805   0.4195   0.0
Er178     Er     0.4195   0.0   0.0805
Er179     Er     0.0   0.0805   0.4195
Er180     Er     0.75   0.9195   0.1695
Er181     Er     0.4195   0.5805   0.5
Er182     Er     0.1695   0.75   0.9195
Er183     Er     0.9195   0.1695   0.75
Er184     Er     0.8305   0.0   0.1695
Er185     Er     0.25   0.5805   0.3305
Er186     Er     0.9195   0.0805   0.5
Er187     Er     0.0805   0.8305   0.25
Er188     Er     0.8305   0.25   0.0805
Er189     Er     0.25   0.0805   0.8305
Er190     Er     0.75   0.8305   0.5805
Er191     Er     0.8305   0.5805   0.75
Er192     Er     0.5805   0.75   0.8305
Ti193     Ti     0.5282   0.8626   0.6318
Ce194     Ce     0.5847   0.8619   0.625
Ti195     Ti     0.4718   0.8682   0.6374
Ce196     Ce     0.4153   0.875   0.6381
Ti197     Ti     0.6318   0.5282   0.8626
Ce198     Ce     0.625   0.5847   0.8619
Ti199     Ti     0.6374   0.4718   0.8682
Ce200     Ce     0.6381   0.4153   0.875
Ti201     Ti     0.8626   0.5282   0.6318
Ce202     Ce     0.8619   0.5847   0.625
Ti203     Ti     0.8682   0.4718   0.6374
Ce204     Ce     0.875   0.4153   0.6381
Ti205     Ti     0.5282   0.6182   0.3874
Ce206     Ce     0.5847   0.625   0.3881
Ti207     Ti     0.4718   0.6126   0.3818
Ce208     Ce     0.4153   0.6119   0.375
Ti209     Ti     0.3818   0.6126   0.4718
Ce210     Ce     0.375   0.6119   0.4153
Ti211     Ti     0.3874   0.6182   0.5282
Ce212     Ce     0.3881   0.625   0.5847
Ti213     Ti     0.5282   0.6318   0.8626
Ce214     Ce     0.5847   0.625   0.8619
Ti215     Ti     0.4718   0.6374   0.8682
Ce216     Ce     0.4153   0.6381   0.875
Ti217     Ti     0.6126   0.8682   0.7782
Ce218     Ce     0.6119   0.875   0.8347
Ti219     Ti     0.6182   0.8626   0.7218
Ce220     Ce     0.625   0.8619   0.6653
Ti221     Ti     0.7782   0.8682   0.6126
Ce222     Ce     0.8347   0.875   0.6119
Ti223     Ti     0.7218   0.8626   0.6182
Ce224     Ce     0.6653   0.8619   0.625
Ti225     Ti     0.6318   0.8626   0.5282
Ce226     Ce     0.625   0.8619   0.5847
Ti227     Ti     0.6374   0.8682   0.4718
Ce228     Ce     0.6381   0.875   0.4153
Ti229     Ti     0.6126   0.7782   0.8682
Ce230     Ce     0.6119   0.8347   0.875
Ti231     Ti     0.6182   0.7218   0.8626
Ce232     Ce     0.625   0.6653   0.8619
Ti233     Ti     0.7782   0.6126   0.8682
Ce234     Ce     0.8347   0.6119   0.875
Ti235     Ti     0.7218   0.6182   0.8626
Ce236     Ce     0.6653   0.625   0.8619
Ti237     Ti     0.8682   0.6126   0.7782
Ce238     Ce     0.875   0.6119   0.8347
Ti239     Ti     0.8626   0.6182   0.7218
Ce240     Ce     0.8619   0.625   0.6653
Ti241     Ti     0.8682   0.7782   0.6126
Ce242     Ce     0.875   0.8347   0.6119
Ti243     Ti     0.8626   0.7218   0.6182
Ce244     Ce     0.8619   0.6653   0.625
Ti245     Ti     0.8682   0.6374   0.4718
Ce246     Ce     0.875   0.6381   0.4153
Ti247     Ti     0.8626   0.6318   0.5282
Ce248     Ce     0.8619   0.625   0.5847
Ti249     Ti     0.3818   0.7782   0.6374
Ce250     Ce     0.375   0.8347   0.6381
Ti251     Ti     0.3874   0.7218   0.6318
Ce252     Ce     0.3881   0.6653   0.625
Ti253     Ti     0.3818   0.6374   0.7782
Ce254     Ce     0.375   0.6381   0.8347
Ti255     Ti     0.3874   0.6318   0.7218
Ce256     Ce     0.3881   0.625   0.6653
Ti257     Ti     0.5282   0.8874   0.1182
Ce258     Ce     0.5847   0.8881   0.125
Ti259     Ti     0.4718   0.8818   0.1126
Ce260     Ce     0.4153   0.875   0.1119
Ti261     Ti     0.8874   0.5282   0.1182
Ce262     Ce     0.8881   0.5847   0.125
Ti263     Ti     0.8818   0.4718   0.1126
Ce264     Ce     0.875   0.4153   0.1119
Ti265     Ti     0.1182   0.5282   0.8874
Ce266     Ce     0.125   0.5847   0.8881
Ti267     Ti     0.1126   0.4718   0.8818
Ce268     Ce     0.1119   0.4153   0.875
Ti269     Ti     0.1182   0.8874   0.5282
Ce270     Ce     0.125   0.8881   0.5847
Ti271     Ti     0.1126   0.8818   0.4718
Ce272     Ce     0.1119   0.875   0.4153
Ti273     Ti     0.6182   0.5282   0.3874
Ce274     Ce     0.625   0.5847   0.3881
Ti275     Ti     0.6126   0.4718   0.3818
Ce276     Ce     0.6119   0.4153   0.375
Ti277     Ti     0.6182   0.3874   0.5282
Ce278     Ce     0.625   0.3881   0.5847
Ti279     Ti     0.6126   0.3818   0.4718
Ce280     Ce     0.6119   0.375   0.4153
Ti281     Ti     0.6182   0.2218   0.3626
Ce282     Ce     0.625   0.1653   0.3619
Ti283     Ti     0.6126   0.2782   0.3682
Ce284     Ce     0.6119   0.3347   0.375
Ti285     Ti     0.6182   0.3626   0.2218
Ce286     Ce     0.625   0.3619   0.1653
Ti287     Ti     0.6126   0.3682   0.2782
Ce288     Ce     0.6119   0.375   0.3347
Ti289     Ti     0.8818   0.1126   0.4718
Ce290     Ce     0.875   0.1119   0.4153
Ti291     Ti     0.8874   0.1182   0.5282
Ce292     Ce     0.8881   0.125   0.5847
Ti293     Ti     0.5282   0.1182   0.8874
Ce294     Ce     0.5847   0.125   0.8881
Ti295     Ti     0.4718   0.1126   0.8818
Ce296     Ce     0.4153   0.1119   0.875
Ti297     Ti     0.2218   0.6182   0.3626
Ce298     Ce     0.1653   0.625   0.3619
Ti299     Ti     0.2782   0.6126   0.3682
Ce300     Ce     0.3347   0.6119   0.375
Ti301     Ti     0.3682   0.6126   0.2782
Ce302     Ce     0.375   0.6119   0.3347
Ti303     Ti     0.3626   0.6182   0.2218
Ce304     Ce     0.3619   0.625   0.1653
Ti305     Ti     0.3682   0.7782   0.1126
Ce306     Ce     0.375   0.8347   0.1119
Ti307     Ti     0.3626   0.7218   0.1182
Ce308     Ce     0.3619   0.6653   0.125
Ti309     Ti     0.2782   0.6374   0.8818
Ce310     Ce     0.3347   0.6381   0.875
Ti311     Ti     0.2218   0.6318   0.8874
Ce312     Ce     0.1653   0.625   0.8881
Ti313     Ti     0.3682   0.6374   0.9718
Ce314     Ce     0.375   0.6381   0.9153
Ti315     Ti     0.3626   0.6318   0.0282
Ce316     Ce     0.3619   0.625   0.0847
Ti317     Ti     0.1374   0.7782   0.8818
Ce318     Ce     0.1381   0.8347   0.875
Ti319     Ti     0.1318   0.7218   0.8874
Ce320     Ce     0.125   0.6653   0.8881
Ti321     Ti     0.9718   0.6126   0.8818
Ce322     Ce     0.9153   0.6119   0.875
Ti323     Ti     0.0282   0.6182   0.8874
Ce324     Ce     0.0847   0.625   0.8881
Ti325     Ti     0.8818   0.6126   0.9718
Ce326     Ce     0.875   0.6119   0.9153
Ti327     Ti     0.8874   0.6182   0.0282
Ce328     Ce     0.8881   0.625   0.0847
Ti329     Ti     0.8818   0.7782   0.1374
Ce330     Ce     0.875   0.8347   0.1381
Ti331     Ti     0.8874   0.7218   0.1318
Ce332     Ce     0.8881   0.6653   0.125
Ti333     Ti     0.1126   0.7782   0.3682
Ce334     Ce     0.1119   0.8347   0.375
Ti335     Ti     0.1182   0.7218   0.3626
Ce336     Ce     0.125   0.6653   0.3619
Ti337     Ti     0.8874   0.6318   0.2218
Ce338     Ce     0.8881   0.625   0.1653
Ti339     Ti     0.8818   0.6374   0.2782
Ce340     Ce     0.875   0.6381   0.3347
Ti341     Ti     0.9718   0.6374   0.3682
Ce342     Ce     0.9153   0.6381   0.375
Ti343     Ti     0.0282   0.6318   0.3626
Ce344     Ce     0.0847   0.625   0.3619
Ti345     Ti     0.7782   0.6374   0.3818
Ce346     Ce     0.8347   0.6381   0.375
Ti347     Ti     0.7218   0.6318   0.3874
Ce348     Ce     0.6653   0.625   0.3881
Ti349     Ti     0.6374   0.7782   0.3818
Ce350     Ce     0.6381   0.8347   0.375
Ti351     Ti     0.6318   0.7218   0.3874
Ce352     Ce     0.625   0.6653   0.3881
Ti353     Ti     0.7782   0.1126   0.3682
Ce354     Ce     0.8347   0.1119   0.375
Ti355     Ti     0.7218   0.1182   0.3626
Ce356     Ce     0.6653   0.125   0.3619
Ti357     Ti     0.6374   0.8818   0.2782
Ce358     Ce     0.6381   0.875   0.3347
Ti359     Ti     0.6318   0.8874   0.2218
Ce360     Ce     0.625   0.8881   0.1653
Ti361     Ti     0.6318   0.0282   0.3626
Ce362     Ce     0.625   0.0847   0.3619
Ti363     Ti     0.6374   0.9718   0.3682
Ce364     Ce     0.6381   0.9153   0.375
Ti365     Ti     0.7782   0.8818   0.1374
Ce366     Ce     0.8347   0.875   0.1381
Ti367     Ti     0.7218   0.8874   0.1318
Ce368     Ce     0.6653   0.8881   0.125
Ti369     Ti     0.7782   0.1374   0.8818
Ce370     Ce     0.8347   0.1381   0.875
Ti371     Ti     0.7218   0.1318   0.8874
Ce372     Ce     0.6653   0.125   0.8881
Ti373     Ti     0.6126   0.8818   0.9718
Ce374     Ce     0.6119   0.875   0.9153
Ti375     Ti     0.6182   0.8874   0.0282
Ce376     Ce     0.625   0.8881   0.0847
Ti377     Ti     0.6126   0.9718   0.8818
Ce378     Ce     0.6119   0.9153   0.875
Ti379     Ti     0.6182   0.0282   0.8874
Ce380     Ce     0.625   0.0847   0.8881
Ti381     Ti     0.3626   0.5282   0.1318
Ce382     Ce     0.3619   0.5847   0.125
Ti383     Ti     0.3682   0.4718   0.1374
Ce384     Ce     0.375   0.4153   0.1381
Ti385     Ti     0.5282   0.3626   0.1318
Ce386     Ce     0.5847   0.3619   0.125
Ti387     Ti     0.4718   0.3682   0.1374
Ce388     Ce     0.4153   0.375   0.1381
Ti389     Ti     0.2782   0.3818   0.1374
Ce390     Ce     0.3347   0.375   0.1381
Ti391     Ti     0.2218   0.3874   0.1318
Ce392     Ce     0.1653   0.3881   0.125
Ti393     Ti     0.3874   0.2218   0.1318
Ce394     Ce     0.3881   0.1653   0.125
Ti395     Ti     0.3818   0.2782   0.1374
Ce396     Ce     0.375   0.3347   0.1381
Ti397     Ti     0.3682   0.1374   0.4718
Ce398     Ce     0.375   0.1381   0.4153
Ti399     Ti     0.3626   0.1318   0.5282
Ce400     Ce     0.3619   0.125   0.5847
Ti401     Ti     0.5282   0.1318   0.3626
Ce402     Ce     0.5847   0.125   0.3619
Ti403     Ti     0.4718   0.1374   0.3682
Ce404     Ce     0.4153   0.1381   0.375
Ti405     Ti     0.2782   0.1374   0.3818
Ce406     Ce     0.3347   0.1381   0.375
Ti407     Ti     0.2218   0.1318   0.3874
Ce408     Ce     0.1653   0.125   0.3881
Ti409     Ti     0.3874   0.1318   0.2218
Ce410     Ce     0.3881   0.125   0.1653
Ti411     Ti     0.3818   0.1374   0.2782
Ce412     Ce     0.375   0.1381   0.3347
Ti413     Ti     0.1374   0.3818   0.2782
Ce414     Ce     0.1381   0.375   0.3347
Ti415     Ti     0.1318   0.3874   0.2218
Ce416     Ce     0.125   0.3881   0.1653
Ti417     Ti     0.1318   0.2218   0.3874
Ce418     Ce     0.125   0.1653   0.3881
Ti419     Ti     0.1374   0.2782   0.3818
Ce420     Ce     0.1381   0.3347   0.375
Ti421     Ti     0.1318   0.5282   0.3626
Ce422     Ce     0.125   0.5847   0.3619
Ti423     Ti     0.1374   0.4718   0.3682
Ce424     Ce     0.1381   0.4153   0.375
Ti425     Ti     0.1318   0.3626   0.5282
Ce426     Ce     0.125   0.3619   0.5847
Ti427     Ti     0.1374   0.3682   0.4718
Ce428     Ce     0.1381   0.375   0.4153
Ti429     Ti     0.3874   0.5282   0.6182
Ce430     Ce     0.3881   0.5847   0.625
Ti431     Ti     0.3818   0.4718   0.6126
Ce432     Ce     0.375   0.4153   0.6119
Ti433     Ti     0.5282   0.3874   0.6182
Ce434     Ce     0.5847   0.3881   0.625
Ti435     Ti     0.4718   0.3818   0.6126
Ce436     Ce     0.4153   0.375   0.6119
Ti437     Ti     0.3626   0.2218   0.6182
Ce438     Ce     0.3619   0.1653   0.625
Ti439     Ti     0.3682   0.2782   0.6126
Ce440     Ce     0.375   0.3347   0.6119
Ti441     Ti     0.2218   0.3626   0.6182
Ce442     Ce     0.1653   0.3619   0.625
Ti443     Ti     0.2782   0.3682   0.6126
Ce444     Ce     0.3347   0.375   0.6119
Ti445     Ti     0.6374   0.3818   0.7782
Ce446     Ce     0.6381   0.375   0.8347
Ti447     Ti     0.6318   0.3874   0.7218
Ce448     Ce     0.625   0.3881   0.6653
Ti449     Ti     0.7782   0.3818   0.6374
Ce450     Ce     0.8347   0.375   0.6381
Ti451     Ti     0.7218   0.3874   0.6318
Ce452     Ce     0.6653   0.3881   0.625
Ti453     Ti     0.6374   0.2782   0.8818
Ce454     Ce     0.6381   0.3347   0.875
Ti455     Ti     0.6318   0.2218   0.8874
Ce456     Ce     0.625   0.1653   0.8881
Ti457     Ti     0.6374   0.3682   0.9718
Ce458     Ce     0.6381   0.375   0.9153
Ti459     Ti     0.6318   0.3626   0.0282
Ce460     Ce     0.625   0.3619   0.0847
Ti461     Ti     0.7782   0.3682   0.1126
Ce462     Ce     0.8347   0.375   0.1119
Ti463     Ti     0.7218   0.3626   0.1182
Ce464     Ce     0.6653   0.3619   0.125
Ti465     Ti     0.8682   0.1374   0.9718
Ce466     Ce     0.875   0.1381   0.9153
Ti467     Ti     0.8626   0.1318   0.0282
Ce468     Ce     0.8619   0.125   0.0847
Ti469     Ti     0.9718   0.1374   0.8682
Ce470     Ce     0.9153   0.1381   0.875
Ti471     Ti     0.0282   0.1318   0.8626
Ce472     Ce     0.0847   0.125   0.8619
Ti473     Ti     0.1374   0.9718   0.8682
Ce474     Ce     0.1381   0.9153   0.875
Ti475     Ti     0.1318   0.0282   0.8626
Ce476     Ce     0.125   0.0847   0.8619
Ti477     Ti     0.1374   0.8682   0.9718
Ce478     Ce     0.1381   0.875   0.9153
Ti479     Ti     0.1318   0.8626   0.0282
Ce480     Ce     0.125   0.8619   0.0847
Ti481     Ti     0.1126   0.9718   0.3818
Ce482     Ce     0.1119   0.9153   0.375
Ti483     Ti     0.1182   0.0282   0.3874
Ce484     Ce     0.125   0.0847   0.3881
Ti485     Ti     0.1182   0.8626   0.2218
Ce486     Ce     0.125   0.8619   0.1653
Ti487     Ti     0.1126   0.8682   0.2782
Ce488     Ce     0.1119   0.875   0.3347
Ti489     Ti     0.9718   0.8682   0.1374
Ce490     Ce     0.9153   0.875   0.1381
Ti491     Ti     0.0282   0.8626   0.1318
Ce492     Ce     0.0847   0.8619   0.125
Ti493     Ti     0.8682   0.9718   0.1374
Ce494     Ce     0.875   0.9153   0.1381
Ti495     Ti     0.8626   0.0282   0.1318
Ce496     Ce     0.8619   0.0847   0.125
Ti497     Ti     0.9718   0.1126   0.3818
Ce498     Ce     0.9153   0.1119   0.375
Ti499     Ti     0.0282   0.1182   0.3874
Ce500     Ce     0.0847   0.125   0.3881
Ti501     Ti     0.8682   0.1126   0.2782
Ce502     Ce     0.875   0.1119   0.3347
Ti503     Ti     0.8626   0.1182   0.2218
Ce504     Ce     0.8619   0.125   0.1653
Ti505     Ti     0.9718   0.3818   0.1126
Ce506     Ce     0.9153   0.375   0.1119
Ti507     Ti     0.0282   0.3874   0.1182
Ce508     Ce     0.0847   0.3881   0.125
Ti509     Ti     0.8626   0.2218   0.1182
Ce510     Ce     0.8619   0.1653   0.125
Ti511     Ti     0.8682   0.2782   0.1126
Ce512     Ce     0.875   0.3347   0.1119
Ti513     Ti     0.1126   0.3818   0.9718
Ce514     Ce     0.1119   0.375   0.9153
Ti515     Ti     0.1182   0.3874   0.0282
Ce516     Ce     0.125   0.3881   0.0847
Ti517     Ti     0.1126   0.2782   0.8682
Ce518     Ce     0.1119   0.3347   0.875
Ti519     Ti     0.1182   0.2218   0.8626
Ce520     Ce     0.125   0.1653   0.8619
Ti521     Ti     0.8818   0.2782   0.6374
Ce522     Ce     0.875   0.3347   0.6381
Ti523     Ti     0.8874   0.2218   0.6318
Ce524     Ce     0.8881   0.1653   0.625
Ti525     Ti     0.9718   0.3682   0.6374
Ce526     Ce     0.9153   0.375   0.6381
Ti527     Ti     0.0282   0.3626   0.6318
Ce528     Ce     0.0847   0.3619   0.625
Ti529     Ti     0.1126   0.3682   0.7782
Ce530     Ce     0.1119   0.375   0.8347
Ti531     Ti     0.1182   0.3626   0.7218
Ce532     Ce     0.125   0.3619   0.6653
Ti533     Ti     0.3818   0.1126   0.9718
Ce534     Ce     0.375   0.1119   0.9153
Ti535     Ti     0.3874   0.1182   0.0282
Ce536     Ce     0.3881   0.125   0.0847
Ti537     Ti     0.2218   0.1182   0.8626
Ce538     Ce     0.1653   0.125   0.8619
Ti539     Ti     0.2782   0.1126   0.8682
Ce540     Ce     0.3347   0.1119   0.875
Ti541     Ti     0.3818   0.9718   0.1126
Ce542     Ce     0.375   0.9153   0.1119
Ti543     Ti     0.3874   0.0282   0.1182
Ce544     Ce     0.3881   0.0847   0.125
Ti545     Ti     0.2782   0.8682   0.1126
Ce546     Ce     0.3347   0.875   0.1119
Ti547     Ti     0.2218   0.8626   0.1182
Ce548     Ce     0.1653   0.8619   0.125
Ti549     Ti     0.8818   0.1374   0.7782
Ce550     Ce     0.875   0.1381   0.8347
Ti551     Ti     0.8874   0.1318   0.7218
Ce552     Ce     0.8881   0.125   0.6653
Ti553     Ti     0.1374   0.8818   0.7782
Ce554     Ce     0.1381   0.875   0.8347
Ti555     Ti     0.1318   0.8874   0.7218
Ce556     Ce     0.125   0.8881   0.6653
Ti557     Ti     0.8818   0.9718   0.6126
Ce558     Ce     0.875   0.9153   0.6119
Ti559     Ti     0.8874   0.0282   0.6182
Ce560     Ce     0.8881   0.0847   0.625
Ti561     Ti     0.9718   0.8818   0.6126
Ce562     Ce     0.9153   0.875   0.6119
Ti563     Ti     0.0282   0.8874   0.6182
Ce564     Ce     0.0847   0.8881   0.625
Ti565     Ti     0.3682   0.9718   0.6374
Ce566     Ce     0.375   0.9153   0.6381
Ti567     Ti     0.3626   0.0282   0.6318
Ce568     Ce     0.3619   0.0847   0.625
Ti569     Ti     0.2782   0.8818   0.6374
Ce570     Ce     0.3347   0.875   0.6381
Ti571     Ti     0.2218   0.8874   0.6318
Ce572     Ce     0.1653   0.8881   0.625
Ti573     Ti     0.3682   0.1126   0.7782
Ce574     Ce     0.375   0.1119   0.8347
Ti575     Ti     0.3626   0.1182   0.7218
Ce576     Ce     0.3619   0.125   0.6653
loop_
_geom_bond_atom_site_label_1
_geom_bond_atom_site_label_2
_geom_bond_distance
_geom_bond_site_symmetry_2
_ccdc_geom_bond_type
V1     Er155    10.0   .     S
V1     V2    10.0   .     S
V1     V3    10.0   .     S
V2     Er158    10.0   .     S
V2     V5    10.0   .     S
V3     Er152    10.0   .     S
V3     V4    10.0   .     S
V4     Er181    10.0   .     S
V4     V6    10.0   .     S
V5     Er146    10.0   .     S
V5     V6    10.0   .     S
V6     Er148    10.0   .     S
V7     Er127    10.0   .     S
V7     V8    10.0   .     S
V7     V9    10.0   .     S
V8     Er171    10.0   .     S
V8     V12    10.0   .     S
V9     Er105    10.0   .     S
V9     V10    10.0   .     S
V10     Er135    10.0   .     S
V10     V11    10.0   .     S
V11     Er167    10.0   .     S
V11     V12    10.0   .     S
V12     Er109    10.0   .     S
V13     Er185    10.0   .     S
V13     V14    10.0   .     S
V13     V15    10.0   .     S
V14     Er115    10.0   .     S
V14     V16    10.0   .     S
V15     Er108    10.0   .     S
V15     V18    10.0   .     S
V16     Er121    10.0   .     S
V16     V17    10.0   .     S
V17     Er130    10.0   .     S
V17     V18    10.0   .     S
V18     Er114    10.0   .     S
V19     Er118    10.0   .     S
V19     V20    10.0   .     S
V19     V24    10.0   .     S
V20     Er172    10.0   .     S
V20     V21    10.0   .     S
V21     Er133    10.0   .     S
V21     V22    10.0   .     S
V22     Er113    10.0   .     S
V22     V23    10.0   .     S
V23     Er156    10.0   .     S
V23     V24    10.0   .     S
V24     Er106    10.0   .     S
V25     Er99    10.0   .     S
V25     V26    10.0   1_545     S
V25     V28    10.0   .     S
V26     Er145    10.0   .     S
V26     V25    10.0   1_565     S
V26     V30    10.0   .     S
V27     Er184    10.0   .     S
V27     V29    10.0   .     S
V27     V30    10.0   1_545     S
V28     Er119    10.0   .     S
V28     V29    10.0   .     S
V29     Er163    10.0   .     S
V30     Er180    10.0   .     S
V30     V27    10.0   1_565     S
V31     Er112    10.0   .     S
V31     V33    10.0   .     S
V31     V32    10.0   .     S
V32     Er191    10.0   .     S
V32     V35    10.0   .     S
V33     Er143    10.0   .     S
V33     V34    10.0   .     S
V34     Er101    10.0   .     S
V34     V36    10.0   .     S
V35     Er161    10.0   .     S
V35     V36    10.0   .     S
V36     Er138    10.0   .     S
V37     Er97    10.0   .     S
V37     V38    10.0   1_455     S
V37     V42    10.0   .     S
V38     Er117    10.0   .     S
V38     V37    10.0   1_655     S
V38     V39    10.0   .     S
V39     Er183    10.0   .     S
V39     V40    10.0   1_655     S
V40     Er168    10.0   .     S
V40     V41    10.0   .     S
V40     V39    10.0   1_455     S
V41     Er174    10.0   .     S
V41     V42    10.0   .     S
V42     Er126    10.0   .     S
V43     Er128    10.0   .     S
V43     V47    10.0   .     S
V43     V45    10.0   1_565     S
V44     Er131    10.0   .     S
V44     V48    10.0   .     S
V44     V46    10.0   1_556     S
V45     V43    10.0   1_545     S
V45     Er178    10.0   .     S
V45     V46    10.0   .     S
V46     V44    10.0   1_554     S
V46     Er173    10.0   .     S
V47     Er147    10.0   .     S
V47     V48    10.0   1_564     S
V48     Er151    10.0   .     S
V48     V47    10.0   1_546     S
V49     Er129    10.0   .     S
V49     V53    10.0   .     S
V49     V51    10.0   1_655     S
V50     Er132    10.0   .     S
V50     V54    10.0   .     S
V50     V52    10.0   1_556     S
V51     V49    10.0   1_455     S
V51     Er175    10.0   .     S
V51     V52    10.0   .     S
V52     V50    10.0   1_554     S
V52     Er177    10.0   .     S
V53     Er149    10.0   .     S
V53     V54    10.0   1_654     S
V54     Er157    10.0   .     S
V54     V53    10.0   1_456     S
V55     Er125    10.0   .     S
V55     V60    10.0   .     S
V55     V57    10.0   1_556     S
V56     Er169    10.0   .     S
V56     V59    10.0   .     S
V56     V58    10.0   .     S
V57     Er150    10.0   .     S
V57     V58    10.0   .     S
V57     V55    10.0   1_554     S
V58     Er188    10.0   .     S
V59     Er107    10.0   .     S
V59     V60    10.0   1_554     S
V60     Er116    10.0   .     S
V60     V59    10.0   1_556     S
V61     Er134    10.0   .     S
V61     V65    10.0   .     S
V61     V63    10.0   1_565     S
V62     Er186    10.0   .     S
V62     V66    10.0   .     S
V62     V64    10.0   1_655     S
V63     V61    10.0   1_545     S
V63     Er176    10.0   .     S
V63     V64    10.0   .     S
V64     V62    10.0   1_455     S
V64     Er179    10.0   .     S
V65     Er154    10.0   .     S
V65     V66    10.0   1_465     S
V66     Er153    10.0   .     S
V66     V65    10.0   1_645     S
V67     Er110    10.0   .     S
V67     V68    10.0   1_565     S
V67     V69    10.0   .     S
V68     Er98    10.0   .     S
V68     V67    10.0   1_545     S
V68     V70    10.0   .     S
V69     Er124    10.0   .     S
V69     V71    10.0   1_565     S
V70     Er170    10.0   .     S
V70     V72    10.0   .     S
V71     Er120    10.0   .     S
V71     V72    10.0   .     S
V71     V69    10.0   1_545     S
V72     Er189    10.0   .     S
V73     Er111    10.0   .     S
V73     V74    10.0   1_655     S
V73     V78    10.0   .     S
V74     Er102    10.0   .     S
V74     V73    10.0   1_455     S
V74     V75    10.0   .     S
V75     Er165    10.0   .     S
V75     V77    10.0   .     S
V76     Er162    10.0   .     S
V76     V77    10.0   .     S
V76     V78    10.0   1_455     S
V77     Er187    10.0   .     S
V78     Er123    10.0   .     S
V78     V76    10.0   1_655     S
V79     Er100    10.0   .     S
V79     V80    10.0   1_554     S
V79     V81    10.0   .     S
V80     Er141    10.0   .     S
V80     V79    10.0   1_556     S
V80     V84    10.0   .     S
V81     Er122    10.0   .     S
V81     V82    10.0   .     S
V82     Er164    10.0   .     S
V82     V83    10.0   .     S
V83     Er166    10.0   .     S
V83     V84    10.0   1_554     S
V84     Er182    10.0   .     S
V84     V83    10.0   1_556     S
V85     Er142    10.0   .     S
V85     V86    10.0   .     S
V85     V89    10.0   .     S
V86     Er104    10.0   .     S
V86     V87    10.0   .     S
V87     Er136    10.0   .     S
V87     V88    10.0   .     S
V88     Er159    10.0   .     S
V88     V90    10.0   .     S
V89     Er137    10.0   .     S
V89     V90    10.0   .     S
V90     Er192    10.0   .     S
V91     Er144    10.0   .     S
V91     V92    10.0   .     S
V91     V95    10.0   .     S
V92     Er103    10.0   .     S
V92     V93    10.0   .     S
V93     Er140    10.0   .     S
V93     V94    10.0   .     S
V94     Er160    10.0   .     S
V94     V96    10.0   .     S
V95     Er139    10.0   .     S
V95     V96    10.0   .     S
V96     Er190    10.0   .     S
Er97     Ti527    9.999   .     S
Er97     Ti525    9.999   1_455     S
Er98     Ti567    9.999   .     S
Er98     Ti565    9.999   1_545     S
Er99     Ti361    9.999   .     S
Er99     Ti363    9.999   1_545     S
Er100     Ti315    9.999   .     S
Er100     Ti313    9.999   1_554     S
Er101     Ti447    9.999   .     S
Er101     Ti445    9.999   .     S
Er102     Ti343    9.999   .     S
Er102     Ti341    9.999   1_455     S
Er103     Ti347    9.999   .     S
Er103     Ti345    9.999   .     S
Er104     Ti249    9.999   .     S
Er104     Ti251    9.999   .     S
Er105     Ti403    9.999   .     S
Er105     Ti401    9.999   .     S
Er106     Ti427    9.999   .     S
Er106     Ti425    9.999   .     S
Er107     Ti459    9.999   .     S
Er107     Ti457    9.999   1_554     S
Er108     Ti423    9.999   .     S
Er108     Ti421    9.999   .     S
Er109     Ti387    9.999   .     S
Er109     Ti385    9.999   .     S
Er110     Ti569    9.999   .     S
Er110     Ti571    9.999   .     S
Er111     Ti339    9.999   .     S
Er111     Ti337    9.999   .     S
Er112     Ti203    9.999   .     S
Er112     Ti201    9.999   .     S
Er113     Ti405    9.999   .     S
Er113     Ti407    9.999   .     S
Er114     Ti415    9.999   .     S
Er114     Ti413    9.999   .     S
Er115     Ti303    9.999   .     S
Er115     Ti301    9.999   .     S
Er116     Ti453    9.999   .     S
Er116     Ti455    9.999   .     S
Er117     Ti521    9.999   .     S
Er117     Ti523    9.999   .     S
Er118     Ti441    9.999   .     S
Er118     Ti443    9.999   .     S
Er119     Ti355    9.999   .     S
Er119     Ti353    9.999   .     S
Er120     Ti475    9.999   .     S
Er120     Ti473    9.999   1_545     S
Er121     Ti383    9.999   .     S
Er121     Ti381    9.999   .     S
Er122     Ti305    9.999   .     S
Er122     Ti307    9.999   .     S
Er123     Ti329    9.999   .     S
Er123     Ti331    9.999   .     S
Er124     Ti553    9.999   .     S
Er124     Ti555    9.999   .     S
Er125     Ti369    9.999   .     S
Er125     Ti371    9.999   .     S
Er126     Ti529    9.999   .     S
Er126     Ti531    9.999   .     S
Er127     Ti281    9.999   .     S
Er127     Ti283    9.999   .     S
Er128     Ti259    9.999   .     S
Er128     Ti257    9.999   .     S
Er129     Ti263    9.999   .     S
Er129     Ti261    9.999   .     S
Er130     Ti389    9.999   .     S
Er130     Ti391    9.999   .     S
Er131     Ti295    9.999   .     S
Er131     Ti293    9.999   .     S
Er132     Ti267    9.999   .     S
Er132     Ti265    9.999   .     S
Er133     Ti399    9.999   .     S
Er133     Ti397    9.999   .     S
Er134     Ti271    9.999   .     S
Er134     Ti269    9.999   .     S
Er135     Ti411    9.999   .     S
Er135     Ti409    9.999   .     S
Er136     Ti195    9.999   .     S
Er136     Ti193    9.999   .     S
Er137     Ti213    9.999   .     S
Er137     Ti215    9.999   .     S
Er138     Ti197    9.999   .     S
Er138     Ti199    9.999   .     S
Er139     Ti225    9.999   .     S
Er139     Ti227    9.999   .     S
Er140     Ti247    9.999   .     S
Er140     Ti245    9.999   .     S
Er141     Ti309    9.999   .     S
Er141     Ti311    9.999   .     S
Er142     Ti255    9.999   .     S
Er142     Ti253    9.999   .     S
Er143     Ti451    9.999   .     S
Er143     Ti449    9.999   .     S
Er144     Ti351    9.999   .     S
Er144     Ti349    9.999   .     S
Er145     Ti357    9.999   .     S
Er145     Ti359    9.999   .     S
Er146     Ti435    9.999   .     S
Er146     Ti433    9.999   .     S
Er147     Ti373    9.999   1_554     S
Er147     Ti375    9.999   .     S
Er148     Ti431    9.999   .     S
Er148     Ti429    9.999   .     S
Er149     Ti325    9.999   1_554     S
Er149     Ti327    9.999   .     S
Er150     Ti467    9.999   .     S
Er150     Ti465    9.999   1_554     S
Er151     Ti377    9.999   1_545     S
Er151     Ti379    9.999   .     S
Er152     Ti207    9.999   .     S
Er152     Ti205    9.999   .     S
Er153     Ti557    9.999   1_545     S
Er153     Ti559    9.999   .     S
Er154     Ti561    9.999   1_455     S
Er154     Ti563    9.999   .     S
Er155     Ti275    9.999   .     S
Er155     Ti273    9.999   .     S
Er156     Ti419    9.999   .     S
Er156     Ti417    9.999   .     S
Er157     Ti321    9.999   1_455     S
Er157     Ti323    9.999   .     S
Er158     Ti279    9.999   .     S
Er158     Ti277    9.999   .     S
Er159     Ti219    9.999   .     S
Er159     Ti217    9.999   .     S
Er160     Ti243    9.999   .     S
Er160     Ti241    9.999   .     S
Er161     Ti235    9.999   .     S
Er161     Ti233    9.999   .     S
Er162     Ti491    9.999   .     S
Er162     Ti489    9.999   1_455     S
Er163     Ti503    9.999   .     S
Er163     Ti501    9.999   .     S
Er164     Ti547    9.999   .     S
Er164     Ti545    9.999   .     S
Er165     Ti333    9.999   .     S
Er165     Ti335    9.999   .     S
Er166     Ti477    9.999   1_554     S
Er166     Ti479    9.999   .     S
Er167     Ti395    9.999   .     S
Er167     Ti393    9.999   .     S
Er168     Ti469    9.999   1_455     S
Er168     Ti471    9.999   .     S
Er169     Ti461    9.999   .     S
Er169     Ti463    9.999   .     S
Er170     Ti573    9.999   .     S
Er170     Ti575    9.999   .     S
Er171     Ti287    9.999   .     S
Er171     Ti285    9.999   .     S
Er172     Ti437    9.999   .     S
Er172     Ti439    9.999   .     S
Er173     Ti533    9.999   1_554     S
Er173     Ti535    9.999   .     S
Er174     Ti517    9.999   .     S
Er174     Ti519    9.999   .     S
Er175     Ti505    9.999   1_455     S
Er175     Ti507    9.999   .     S
Er176     Ti481    9.999   1_545     S
Er176     Ti483    9.999   .     S
Er177     Ti513    9.999   1_554     S
Er177     Ti515    9.999   .     S
Er178     Ti541    9.999   1_545     S
Er178     Ti543    9.999   .     S
Er179     Ti497    9.999   1_455     S
Er179     Ti499    9.999   .     S
Er180     Ti365    9.999   .     S
Er180     Ti367    9.999   .     S
Er181     Ti211    9.999   .     S
Er181     Ti209    9.999   .     S
Er182     Ti317    9.999   .     S
Er182     Ti319    9.999   .     S
Er183     Ti549    9.999   .     S
Er183     Ti551    9.999   .     S
Er184     Ti493    9.999   1_545     S
Er184     Ti495    9.999   .     S
Er185     Ti297    9.999   .     S
Er185     Ti299    9.999   .     S
Er186     Ti289    9.999   .     S
Er186     Ti291    9.999   .     S
Er187     Ti487    9.999   .     S
Er187     Ti485    9.999   .     S
Er188     Ti511    9.999   .     S
Er188     Ti509    9.999   .     S
Er189     Ti537    9.999   .     S
Er189     Ti539    9.999   .     S
Er190     Ti223    9.999   .     S
Er190     Ti221    9.999   .     S
Er191     Ti239    9.999   .     S
Er191     Ti237    9.999   .     S
Er192     Ti231    9.999   .     S
Er192     Ti229    9.999   .     S
Ti193     Ce194    10.0   .     S
Ti193     Ti195    10.0   .     S
Ce194     Ce220    10.0   .     S
Ce194     Ce226    10.0   .     S
Ti195     Ce196    10.0   .     S
Ce196     Ce566    10.0   .     S
Ce196     Ce250    10.0   .     S
Ti197     Ce198    10.0   .     S
Ti197     Ti199    10.0   .     S
Ce198     Ce236    10.0   .     S
Ce198     Ce214    10.0   .     S
Ti199     Ce200    10.0   .     S
Ce200     Ce458    10.0   .     S
Ce200     Ce446    10.0   .     S
Ti201     Ce202    10.0   .     S
Ti201     Ti203    10.0   .     S
Ce202     Ce240    10.0   .     S
Ce202     Ce248    10.0   .     S
Ti203     Ce204    10.0   .     S
Ce204     Ce526    10.0   .     S
Ce204     Ce450    10.0   .     S
Ti205     Ce206    10.0   .     S
Ti205     Ti207    10.0   .     S
Ce206     Ce352    10.0   .     S
Ce206     Ce274    10.0   .     S
Ti207     Ce208    10.0   .     S
Ce208     Ce302    10.0   .     S
Ce208     Ce210    10.0   .     S
Ti209     Ce210    10.0   .     S
Ti209     Ti211    10.0   .     S
Ce210     Ce300    10.0   .     S
Ti211     Ce212    10.0   .     S
Ce212     Ce252    10.0   .     S
Ce212     Ce430    10.0   .     S
Ti213     Ce214    10.0   .     S
Ti213     Ti215    10.0   .     S
Ce214     Ce232    10.0   .     S
Ti215     Ce216    10.0   .     S
Ce216     Ce314    10.0   .     S
Ce216     Ce254    10.0   .     S
Ti217     Ce218    10.0   .     S
Ti217     Ti219    10.0   .     S
Ce218     Ce378    10.0   .     S
Ce218     Ce230    10.0   .     S
Ti219     Ce220    10.0   .     S
Ce220     Ce224    10.0   .     S
Ti221     Ce222    10.0   .     S
Ti221     Ti223    10.0   .     S
Ce222     Ce558    10.0   .     S
Ce222     Ce242    10.0   .     S
Ti223     Ce224    10.0   .     S
Ce224     Ce226    10.0   .     S
Ti225     Ce226    10.0   .     S
Ti225     Ti227    10.0   .     S
Ti227     Ce228    10.0   .     S
Ce228     Ce364    10.0   .     S
Ce228     Ce350    10.0   .     S
Ti229     Ce230    10.0   .     S
Ti229     Ti231    10.0   .     S
Ce230     Ce374    10.0   .     S
Ti231     Ce232    10.0   .     S
Ce232     Ce236    10.0   .     S
Ti233     Ce234    10.0   .     S
Ti233     Ti235    10.0   .     S
Ce234     Ce326    10.0   .     S
Ce234     Ce238    10.0   .     S
Ti235     Ce236    10.0   .     S
Ti237     Ce238    10.0   .     S
Ti237     Ti239    10.0   .     S
Ce238     Ce322    10.0   .     S
Ti239     Ce240    10.0   .     S
Ce240     Ce244    10.0   .     S
Ti241     Ce242    10.0   .     S
Ti241     Ti243    10.0   .     S
Ce242     Ce562    10.0   .     S
Ti243     Ce244    10.0   .     S
Ce244     Ce248    10.0   .     S
Ti245     Ce246    10.0   .     S
Ti245     Ti247    10.0   .     S
Ce246     Ce342    10.0   .     S
Ce246     Ce346    10.0   .     S
Ti247     Ce248    10.0   .     S
Ti249     Ce250    10.0   .     S
Ti249     Ti251    10.0   .     S
Ce250     Ce570    10.0   .     S
Ti251     Ce252    10.0   .     S
Ce252     Ce256    10.0   .     S
Ti253     Ce254    10.0   .     S
Ti253     Ti255    10.0   .     S
Ce254     Ce310    10.0   .     S
Ti255     Ce256    10.0   .     S
Ce256     Ce430    10.0   .     S
Ti257     Ce258    10.0   .     S
Ti257     Ti259    10.0   .     S
Ce258     Ce376    10.0   .     S
Ce258     Ce360    10.0   .     S
Ti259     Ce260    10.0   .     S
Ce260     Ce542    10.0   .     S
Ce260     Ce306    10.0   .     S
Ti261     Ce262    10.0   .     S
Ti261     Ti263    10.0   .     S
Ce262     Ce328    10.0   .     S
Ce262     Ce338    10.0   .     S
Ti263     Ce264    10.0   .     S
Ce264     Ce506    10.0   .     S
Ce264     Ce462    10.0   .     S
Ti265     Ce266    10.0   .     S
Ti265     Ti267    10.0   .     S
Ce266     Ce324    10.0   .     S
Ce266     Ce312    10.0   .     S
Ti267     Ce268    10.0   .     S
Ce268     Ce514    10.0   .     S
Ce268     Ce530    10.0   .     S
Ti269     Ce270    10.0   .     S
Ti269     Ti271    10.0   .     S
Ce270     Ce564    10.0   .     S
Ce270     Ce572    10.0   .     S
Ti271     Ce272    10.0   .     S
Ce272     Ce482    10.0   .     S
Ce272     Ce334    10.0   .     S
Ti273     Ce274    10.0   .     S
Ti273     Ti275    10.0   .     S
Ce274     Ce348    10.0   .     S
Ti275     Ce276    10.0   .     S
Ce276     Ce288    10.0   .     S
Ce276     Ce280    10.0   .     S
Ti277     Ce278    10.0   .     S
Ti277     Ti279    10.0   .     S
Ce278     Ce452    10.0   .     S
Ce278     Ce434    10.0   .     S
Ti279     Ce280    10.0   .     S
Ce280     Ce284    10.0   .     S
Ti281     Ce282    10.0   .     S
Ti281     Ti283    10.0   .     S
Ce282     Ce356    10.0   .     S
Ce282     Ce402    10.0   .     S
Ti283     Ce284    10.0   .     S
Ce284     Ce288    10.0   .     S
Ti285     Ce286    10.0   .     S
Ti285     Ti287    10.0   .     S
Ce286     Ce464    10.0   .     S
Ce286     Ce386    10.0   .     S
Ti287     Ce288    10.0   .     S
Ti289     Ce290    10.0   .     S
Ti289     Ti291    10.0   .     S
Ce290     Ce498    10.0   .     S
Ce290     Ce354    10.0   .     S
Ti291     Ce292    10.0   .     S
Ce292     Ce560    10.0   .     S
Ce292     Ce524    10.0   .     S
Ti293     Ce294    10.0   .     S
Ti293     Ti295    10.0   .     S
Ce294     Ce380    10.0   .     S
Ce294     Ce456    10.0   .     S
Ti295     Ce296    10.0   .     S
Ce296     Ce534    10.0   .     S
Ce296     Ce574    10.0   .     S
Ti297     Ce298    10.0   .     S
Ti297     Ti299    10.0   .     S
Ce298     Ce336    10.0   .     S
Ce298     Ce422    10.0   .     S
Ti299     Ce300    10.0   .     S
Ce300     Ce302    10.0   .     S
Ti301     Ce302    10.0   .     S
Ti301     Ti303    10.0   .     S
Ti303     Ce304    10.0   .     S
Ce304     Ce308    10.0   .     S
Ce304     Ce382    10.0   .     S
Ti305     Ce306    10.0   .     S
Ti305     Ti307    10.0   .     S
Ce306     Ce546    10.0   .     S
Ti307     Ce308    10.0   .     S
Ce308     Ce316    10.0   .     S
Ti309     Ce310    10.0   .     S
Ti309     Ti311    10.0   .     S
Ce310     Ce314    10.0   .     S
Ti311     Ce312    10.0   .     S
Ce312     Ce320    10.0   .     S
Ti313     Er100    9.999   1_556     S
Ti313     Ce314    10.0   .     S
Ti313     Ti315    10.0   1_556     S
Ti315     Ce316    10.0   .     S
Ti315     Ti313    10.0   1_554     S
Ce316     Ce382    10.0   .     S
Ti317     Ce318    10.0   .     S
Ti317     Ti319    10.0   .     S
Ce318     Ce478    10.0   .     S
Ce318     Ce554    10.0   .     S
Ti319     Ce320    10.0   .     S
Ce320     Ce324    10.0   .     S
Ti321     Er157    9.999   1_655     S
Ti321     Ce322    10.0   .     S
Ti321     Ti323    10.0   1_655     S
Ce322     Ce326    10.0   .     S
Ti323     Ce324    10.0   .     S
Ti323     Ti321    10.0   1_455     S
Ti325     Er149    9.999   1_556     S
Ti325     Ce326    10.0   .     S
Ti325     Ti327    10.0   1_556     S
Ti327     Ce328    10.0   .     S
Ti327     Ti325    10.0   1_554     S
Ce328     Ce332    10.0   .     S
Ti329     Ce330    10.0   .     S
Ti329     Ti331    10.0   .     S
Ce330     Ce490    10.0   .     S
Ce330     Ce366    10.0   .     S
Ti331     Ce332    10.0   .     S
Ce332     Ce338    10.0   .     S
Ti333     Ce334    10.0   .     S
Ti333     Ti335    10.0   .     S
Ce334     Ce488    10.0   .     S
Ti335     Ce336    10.0   .     S
Ce336     Ce344    10.0   .     S
Ti337     Ce338    10.0   .     S
Ti337     Ti339    10.0   .     S
Ti339     Ce340    10.0   .     S
Ce340     Ce342    10.0   .     S
Ce340     Ce346    10.0   .     S
Ti341     Er102    9.999   1_655     S
Ti341     Ce342    10.0   .     S
Ti341     Ti343    10.0   1_655     S
Ti343     Ce344    10.0   .     S
Ti343     Ti341    10.0   1_455     S
Ce344     Ce422    10.0   .     S
Ti345     Ce346    10.0   .     S
Ti345     Ti347    10.0   .     S
Ti347     Ce348    10.0   .     S
Ce348     Ce352    10.0   .     S
Ti349     Ce350    10.0   .     S
Ti349     Ti351    10.0   .     S
Ce350     Ce358    10.0   .     S
Ti351     Ce352    10.0   .     S
Ti353     Ce354    10.0   .     S
Ti353     Ti355    10.0   .     S
Ce354     Ce502    10.0   .     S
Ti355     Ce356    10.0   .     S
Ce356     Ce362    10.0   .     S
Ti357     Ce358    10.0   .     S
Ti357     Ti359    10.0   .     S
Ce358     Ce364    10.0   .     S
Ti359     Ce360    10.0   .     S
Ce360     Ce368    10.0   .     S
Ti361     Ce362    10.0   .     S
Ti361     Ti363    10.0   1_545     S
Ce362     Ce402    10.0   .     S
Ti363     Er99    9.999   1_565     S
Ti363     Ce364    10.0   .     S
Ti363     Ti361    10.0   1_565     S
Ti365     Ce366    10.0   .     S
Ti365     Ti367    10.0   .     S
Ce366     Ce494    10.0   .     S
Ti367     Ce368    10.0   .     S
Ce368     Ce376    10.0   .     S
Ti369     Ce370    10.0   .     S
Ti369     Ti371    10.0   .     S
Ce370     Ce466    10.0   .     S
Ce370     Ce550    10.0   .     S
Ti371     Ce372    10.0   .     S
Ce372     Ce380    10.0   .     S
Ce372     Ce456    10.0   .     S
Ti373     Er147    9.999   1_556     S
Ti373     Ce374    10.0   .     S
Ti373     Ti375    10.0   1_556     S
Ce374     Ce378    10.0   .     S
Ti375     Ce376    10.0   .     S
Ti375     Ti373    10.0   1_554     S
Ti377     Er151    9.999   1_565     S
Ti377     Ce378    10.0   .     S
Ti377     Ti379    10.0   1_565     S
Ti379     Ce380    10.0   .     S
Ti379     Ti377    10.0   1_545     S
Ti381     Ce382    10.0   .     S
Ti381     Ti383    10.0   .     S
Ti383     Ce384    10.0   .     S
Ce384     Ce390    10.0   .     S
Ce384     Ce388    10.0   .     S
Ti385     Ce386    10.0   .     S
Ti385     Ti387    10.0   .     S
Ce386     Ce460    10.0   .     S
Ti387     Ce388    10.0   .     S
Ce388     Ce396    10.0   .     S
Ti389     Ce390    10.0   .     S
Ti389     Ti391    10.0   .     S
Ce390     Ce396    10.0   .     S
Ti391     Ce392    10.0   .     S
Ce392     Ce516    10.0   .     S
Ce392     Ce416    10.0   .     S
Ti393     Ce394    10.0   .     S
Ti393     Ti395    10.0   .     S
Ce394     Ce536    10.0   .     S
Ce394     Ce410    10.0   .     S
Ti395     Ce396    10.0   .     S
Ti397     Ce398    10.0   .     S
Ti397     Ti399    10.0   .     S
Ce398     Ce406    10.0   .     S
Ce398     Ce404    10.0   .     S
Ti399     Ce400    10.0   .     S
Ce400     Ce568    10.0   .     S
Ce400     Ce438    10.0   .     S
Ti401     Ce402    10.0   .     S
Ti401     Ti403    10.0   .     S
Ti403     Ce404    10.0   .     S
Ce404     Ce412    10.0   .     S
Ti405     Ce406    10.0   .     S
Ti405     Ti407    10.0   .     S
Ce406     Ce412    10.0   .     S
Ti407     Ce408    10.0   .     S
Ce408     Ce484    10.0   .     S
Ce408     Ce418    10.0   .     S
Ti409     Ce410    10.0   .     S
Ti409     Ti411    10.0   .     S
Ce410     Ce544    10.0   .     S
Ti411     Ce412    10.0   .     S
Ti413     Ce414    10.0   .     S
Ti413     Ti415    10.0   .     S
Ce414     Ce420    10.0   .     S
Ce414     Ce424    10.0   .     S
Ti415     Ce416    10.0   .     S
Ce416     Ce508    10.0   .     S
Ti417     Ce418    10.0   .     S
Ti417     Ti419    10.0   .     S
Ce418     Ce500    10.0   .     S
Ti419     Ce420    10.0   .     S
Ce420     Ce428    10.0   .     S
Ti421     Ce422    10.0   .     S
Ti421     Ti423    10.0   .     S
Ti423     Ce424    10.0   .     S
Ce424     Ce428    10.0   .     S
Ti425     Ce426    10.0   .     S
Ti425     Ti427    10.0   .     S
Ce426     Ce442    10.0   .     S
Ce426     Ce528    10.0   .     S
Ti427     Ce428    10.0   .     S
Ti429     Ce430    10.0   .     S
Ti429     Ti431    10.0   .     S
Ti431     Ce432    10.0   .     S
Ce432     Ce444    10.0   .     S
Ce432     Ce436    10.0   .     S
Ti433     Ce434    10.0   .     S
Ti433     Ti435    10.0   .     S
Ce434     Ce448    10.0   .     S
Ti435     Ce436    10.0   .     S
Ce436     Ce440    10.0   .     S
Ti437     Ce438    10.0   .     S
Ti437     Ti439    10.0   .     S
Ce438     Ce576    10.0   .     S
Ti439     Ce440    10.0   .     S
Ce440     Ce444    10.0   .     S
Ti441     Ce442    10.0   .     S
Ti441     Ti443    10.0   .     S
Ce442     Ce532    10.0   .     S
Ti443     Ce444    10.0   .     S
Ti445     Ce446    10.0   .     S
Ti445     Ti447    10.0   .     S
Ce446     Ce454    10.0   .     S
Ti447     Ce448    10.0   .     S
Ce448     Ce452    10.0   .     S
Ti449     Ce450    10.0   .     S
Ti449     Ti451    10.0   .     S
Ce450     Ce522    10.0   .     S
Ti451     Ce452    10.0   .     S
Ti453     Ce454    10.0   .     S
Ti453     Ti455    10.0   .     S
Ce454     Ce458    10.0   .     S
Ti455     Ce456    10.0   .     S
Ti457     Er107    9.999   1_556     S
Ti457     Ce458    10.0   .     S
Ti457     Ti459    10.0   1_556     S
Ti459     Ce460    10.0   .     S
Ti459     Ti457    10.0   1_554     S
Ce460     Ce464    10.0   .     S
Ti461     Ce462    10.0   .     S
Ti461     Ti463    10.0   .     S
Ce462     Ce512    10.0   .     S
Ti463     Ce464    10.0   .     S
Ti465     Er150    9.999   1_556     S
Ti465     Ce466    10.0   .     S
Ti465     Ti467    10.0   1_556     S
Ce466     Ce470    10.0   .     S
Ti467     Ce468    10.0   .     S
Ti467     Ti465    10.0   1_554     S
Ce468     Ce496    10.0   .     S
Ce468     Ce510    10.0   .     S
Ti469     Er168    9.999   1_655     S
Ti469     Ce470    10.0   .     S
Ti469     Ti471    10.0   1_655     S
Ce470     Ce550    10.0   .     S
Ti471     Ce472    10.0   .     S
Ti471     Ti469    10.0   1_455     S
Ce472     Ce476    10.0   .     S
Ce472     Ce520    10.0   .     S
Ti473     Er120    9.999   1_565     S
Ti473     Ce474    10.0   .     S
Ti473     Ti475    10.0   1_565     S
Ce474     Ce478    10.0   .     S
Ce474     Ce554    10.0   .     S
Ti475     Ce476    10.0   .     S
Ti475     Ti473    10.0   1_545     S
Ce476     Ce538    10.0   .     S
Ti477     Er166    9.999   1_556     S
Ti477     Ce478    10.0   .     S
Ti477     Ti479    10.0   1_556     S
Ti479     Ce480    10.0   .     S
Ti479     Ti477    10.0   1_554     S
Ce480     Ce492    10.0   .     S
Ce480     Ce548    10.0   .     S
Ti481     Er176    9.999   1_565     S
Ti481     Ce482    10.0   .     S
Ti481     Ti483    10.0   1_565     S
Ce482     Ce488    10.0   .     S
Ti483     Ce484    10.0   .     S
Ti483     Ti481    10.0   1_545     S
Ce484     Ce500    10.0   .     S
Ti485     Ce486    10.0   .     S
Ti485     Ti487    10.0   .     S
Ce486     Ce492    10.0   .     S
Ce486     Ce548    10.0   .     S
Ti487     Ce488    10.0   .     S
Ti489     Er162    9.999   1_655     S
Ti489     Ce490    10.0   .     S
Ti489     Ti491    10.0   1_655     S
Ce490     Ce494    10.0   .     S
Ti491     Ce492    10.0   .     S
Ti491     Ti489    10.0   1_455     S
Ti493     Er184    9.999   1_565     S
Ti493     Ce494    10.0   .     S
Ti493     Ti495    10.0   1_565     S
Ti495     Ce496    10.0   .     S
Ti495     Ti493    10.0   1_545     S
Ce496     Ce504    10.0   .     S
Ti497     Er179    9.999   1_655     S
Ti497     Ce498    10.0   .     S
Ti497     Ti499    10.0   1_655     S
Ce498     Ce502    10.0   .     S
Ti499     Ce500    10.0   .     S
Ti499     Ti497    10.0   1_455     S
Ti501     Ce502    10.0   .     S
Ti501     Ti503    10.0   .     S
Ti503     Ce504    10.0   .     S
Ce504     Ce510    10.0   .     S
Ti505     Er175    9.999   1_655     S
Ti505     Ce506    10.0   .     S
Ti505     Ti507    10.0   1_655     S
Ce506     Ce512    10.0   .     S
Ti507     Ce508    10.0   .     S
Ti507     Ti505    10.0   1_455     S
Ce508     Ce516    10.0   .     S
Ti509     Ce510    10.0   .     S
Ti509     Ti511    10.0   .     S
Ti511     Ce512    10.0   .     S
Ti513     Er177    9.999   1_556     S
Ti513     Ce514    10.0   .     S
Ti513     Ti515    10.0   1_556     S
Ce514     Ce518    10.0   .     S
Ti515     Ce516    10.0   .     S
Ti515     Ti513    10.0   1_554     S
Ti517     Ce518    10.0   .     S
Ti517     Ti519    10.0   .     S
Ce518     Ce530    10.0   .     S
Ti519     Ce520    10.0   .     S
Ce520     Ce538    10.0   .     S
Ti521     Ce522    10.0   .     S
Ti521     Ti523    10.0   .     S
Ce522     Ce526    10.0   .     S
Ti523     Ce524    10.0   .     S
Ce524     Ce552    10.0   .     S
Ti525     Er97    9.999   1_655     S
Ti525     Ce526    10.0   .     S
Ti525     Ti527    10.0   1_655     S
Ti527     Ce528    10.0   .     S
Ti527     Ti525    10.0   1_455     S
Ce528     Ce532    10.0   .     S
Ti529     Ce530    10.0   .     S
Ti529     Ti531    10.0   .     S
Ti531     Ce532    10.0   .     S
Ti533     Er173    9.999   1_556     S
Ti533     Ce534    10.0   .     S
Ti533     Ti535    10.0   1_556     S
Ce534     Ce540    10.0   .     S
Ti535     Ce536    10.0   .     S
Ti535     Ti533    10.0   1_554     S
Ce536     Ce544    10.0   .     S
Ti537     Ce538    10.0   .     S
Ti537     Ti539    10.0   .     S
Ti539     Ce540    10.0   .     S
Ce540     Ce574    10.0   .     S
Ti541     Er178    9.999   1_565     S
Ti541     Ce542    10.0   .     S
Ti541     Ti543    10.0   1_565     S
Ce542     Ce546    10.0   .     S
Ti543     Ce544    10.0   .     S
Ti543     Ti541    10.0   1_545     S
Ti545     Ce546    10.0   .     S
Ti545     Ti547    10.0   .     S
Ti547     Ce548    10.0   .     S
Ti549     Ce550    10.0   .     S
Ti549     Ti551    10.0   .     S
Ti551     Ce552    10.0   .     S
Ce552     Ce560    10.0   .     S
Ti553     Ce554    10.0   .     S
Ti553     Ti555    10.0   .     S
Ti555     Ce556    10.0   .     S
Ce556     Ce564    10.0   .     S
Ce556     Ce572    10.0   .     S
Ti557     Er153    9.999   1_565     S
Ti557     Ce558    10.0   .     S
Ti557     Ti559    10.0   1_565     S
Ce558     Ce562    10.0   .     S
Ti559     Ce560    10.0   .     S
Ti559     Ti557    10.0   1_545     S
Ti561     Er154    9.999   1_655     S
Ti561     Ce562    10.0   .     S
Ti561     Ti563    10.0   1_655     S
Ti563     Ce564    10.0   .     S
Ti563     Ti561    10.0   1_455     S
Ti565     Er98    9.999   1_565     S
Ti565     Ce566    10.0   .     S
Ti565     Ti567    10.0   1_565     S
Ce566     Ce570    10.0   .     S
Ti567     Ce568    10.0   .     S
Ti567     Ti565    10.0   1_545     S
Ce568     Ce576    10.0   .     S
Ti569     Ce570    10.0   .     S
Ti569     Ti571    10.0   .     S
Ti571     Ce572    10.0   .     S
Ti573     Ce574    10.0   .     S
Ti573     Ti575    10.0   .     S
Ti575     Ce576    10.0   .     S
