data_etf
_audit_creation_date              2020-02-02
_audit_creation_method            'Pymatgen'
_symmetry_space_group_name_H-M    'P1'
_symmetry_Int_Tables_number       1
loop_
_symmetry_equiv_pos_as_xyz
  x,y,z
_cell_length_a                    63.416
_cell_length_b                    63.416
_cell_length_c                    29.8677
_cell_angle_alpha                 90.0
_cell_angle_beta                 90.0
_cell_angle_gamma                 120.0
loop_
_atom_site_label
_atom_site_type_symbol
_atom_site_fract_x
_atom_site_fract_y
_atom_site_fract_z
V1     V     0.7835   0.6925   0.2562
V2     V     0.8832   0.6408   0.0772
V3     V     0.6925   0.7835   0.2438
V4     V     0.6408   0.8832   0.4228
V5     V     0.9741   0.5498   0.0895
V6     V     0.0259   0.4502   0.9105
V7     V     0.1168   0.3592   0.9228
V8     V     0.2165   0.3075   0.7438
V9     V     0.3592   0.1168   0.5772
V10     V     0.3075   0.2165   0.7562
V11     V     0.5498   0.9741   0.4105
V12     V     0.4502   0.0259   0.5895
V13     V     0.4502   0.4243   0.0895
V14     V     0.5498   0.5757   0.9105
V15     V     0.3592   0.2424   0.0772
V16     V     0.3075   0.091   0.2562
V17     V     0.1168   0.7576   0.4228
V18     V     0.2165   0.909   0.2438
V19     V     0.6925   0.909   0.7438
V20     V     0.6408   0.7576   0.9228
V21     V     0.9741   0.4243   0.5895
V22     V     0.0259   0.5757   0.4105
V23     V     0.8832   0.2424   0.5772
V24     V     0.7835   0.091   0.7562
V25     V     0.909   0.2165   0.2562
V26     V     0.7576   0.1168   0.0772
V27     V     0.2424   0.3592   0.4228
V28     V     0.091   0.3075   0.2438
V29     V     0.909   0.6925   0.7562
V30     V     0.7576   0.6408   0.5772
V31     V     0.4243   0.4502   0.4105
V32     V     0.5757   0.5498   0.5895
V33     V     0.5757   0.0259   0.0895
V34     V     0.4243   0.9741   0.9105
V35     V     0.2424   0.8832   0.9228
V36     V     0.091   0.7835   0.7438
loop_
_geom_bond_atom_site_label_1
_geom_bond_atom_site_label_2
_geom_bond_distance
_geom_bond_site_symmetry_2
_ccdc_geom_bond_type
V1     V2    10.0   .     S
V1     V3    10.0   .     S
V1     V30    10.0   .     S
V2     V5    10.0   .     S
V2     V29    10.0   1_554     S
V3     V4    10.0   .     S
V3     V20    10.0   1_554     S
V4     V11    10.0   .     S
V4     V19    10.0   .     S
V5     V22    10.0   1_655     S
V5     V6    10.0   1_654     S
V6     V21    10.0   1_455     S
V6     V5    10.0   1_456     S
V6     V7    10.0   .     S
V7     V8    10.0   .     S
V7     V28    10.0   1_556     S
V8     V10    10.0   .     S
V8     V27    10.0   .     S
V9     V10    10.0   .     S
V9     V12    10.0   .     S
V9     V16    10.0   .     S
V10     V15    10.0   1_556     S
V11     V33    10.0   1_565     S
V11     V12    10.0   1_565     S
V12     V34    10.0   1_545     S
V12     V11    10.0   1_545     S
V13     V31    10.0   .     S
V13     V14    10.0   1_554     S
V13     V15    10.0   .     S
V14     V32    10.0   .     S
V14     V13    10.0   1_556     S
V14     V20    10.0   .     S
V15     V10    10.0   1_554     S
V15     V16    10.0   .     S
V16     V18    10.0   1_545     S
V17     V36    10.0   .     S
V17     V18    10.0   .     S
V17     V22    10.0   .     S
V18     V35    10.0   1_554     S
V18     V16    10.0   1_565     S
V19     V20    10.0   .     S
V19     V24    10.0   1_565     S
V20     V3    10.0   1_556     S
V21     V6    10.0   1_655     S
V21     V22    10.0   1_655     S
V21     V23    10.0   .     S
V22     V5    10.0   1_455     S
V22     V21    10.0   1_455     S
V23     V24    10.0   .     S
V23     V25    10.0   .     S
V24     V26    10.0   1_556     S
V24     V19    10.0   1_545     S
V25     V26    10.0   .     S
V25     V28    10.0   1_655     S
V26     V24    10.0   1_554     S
V26     V33    10.0   .     S
V27     V28    10.0   .     S
V27     V31    10.0   .     S
V28     V7    10.0   1_554     S
V28     V25    10.0   1_455     S
V29     V2    10.0   1_556     S
V29     V30    10.0   .     S
V29     V36    10.0   1_655     S
V30     V32    10.0   .     S
V31     V32    10.0   .     S
V33     V11    10.0   1_545     S
V33     V34    10.0   1_544     S
V34     V12    10.0   1_565     S
V34     V33    10.0   1_566     S
V34     V35    10.0   .     S
V35     V18    10.0   1_556     S
V35     V36    10.0   .     S
V36     V29    10.0   1_455     S
