data_etp
_audit_creation_date              2020-02-02
_audit_creation_method            'Pymatgen'
_symmetry_space_group_name_H-M    'P1'
_symmetry_Int_Tables_number       1
loop_
_symmetry_equiv_pos_as_xyz
  x,y,z
_cell_length_a                    54.2635
_cell_length_b                    54.2635
_cell_length_c                    54.2635
_cell_angle_alpha                 90.0
_cell_angle_beta                 90.0
_cell_angle_gamma                 90.0
loop_
_atom_site_label
_atom_site_type_symbol
_atom_site_fract_x
_atom_site_fract_y
_atom_site_fract_z
Er1     Er     0.9554   0.6693   0.5911
Er2     Er     0.0911   0.5446   0.3307
Er3     Er     0.8307   0.4089   0.4554
V4     V     0.9586   0.5414   0.4586
Er5     Er     0.6693   0.5911   0.9554
Er6     Er     0.5446   0.3307   0.0911
Er7     Er     0.4089   0.4554   0.8307
V8     V     0.5414   0.4586   0.9586
Er9     Er     0.9193   0.2946   0.3411
Er10     Er     0.7946   0.1589   0.0807
Er11     Er     0.6589   0.4193   0.2054
V12     V     0.7914   0.2914   0.2086
Er13     Er     0.5911   0.9554   0.6693
Er14     Er     0.3307   0.0911   0.5446
Er15     Er     0.4554   0.8307   0.4089
V16     V     0.4586   0.9586   0.5414
Er17     Er     0.1589   0.0807   0.7946
Er18     Er     0.2946   0.3411   0.9193
Er19     Er     0.4193   0.2054   0.6589
V20     V     0.2914   0.2086   0.7914
Er21     Er     0.1693   0.9089   0.0446
Er22     Er     0.9089   0.0446   0.1693
Er23     Er     0.0446   0.1693   0.9089
V24     V     0.0414   0.0414   0.0414
Er25     Er     0.3411   0.9193   0.2946
Er26     Er     0.0807   0.7946   0.1589
Er27     Er     0.2054   0.6589   0.4193
V28     V     0.2086   0.7914   0.2914
Er29     Er     0.8411   0.5807   0.7054
Er30     Er     0.7054   0.8411   0.5807
Er31     Er     0.5807   0.7054   0.8411
V32     V     0.7086   0.7086   0.7086
Er33     Er     0.9193   0.7054   0.1589
Er34     Er     0.6589   0.5807   0.2946
Er35     Er     0.7946   0.8411   0.4193
V36     V     0.7914   0.7086   0.2914
Er37     Er     0.7054   0.1589   0.9193
Er38     Er     0.5807   0.2946   0.6589
Er39     Er     0.8411   0.4193   0.7946
V40     V     0.7086   0.2914   0.7914
Er41     Er     0.6693   0.4089   0.5446
Er42     Er     0.5446   0.6693   0.4089
Er43     Er     0.4089   0.5446   0.6693
V44     V     0.5414   0.5414   0.5414
Er45     Er     0.1589   0.9193   0.7054
Er46     Er     0.2946   0.6589   0.5807
Er47     Er     0.4193   0.7946   0.8411
V48     V     0.2914   0.7914   0.7086
Er49     Er     0.4554   0.1693   0.0911
Er50     Er     0.3307   0.9089   0.9554
Er51     Er     0.5911   0.0446   0.8307
V52     V     0.4586   0.0414   0.9586
Er53     Er     0.9554   0.3307   0.9089
Er54     Er     0.0911   0.4554   0.1693
Er55     Er     0.8307   0.5911   0.0446
V56     V     0.9586   0.4586   0.0414
Er57     Er     0.3411   0.0807   0.2054
Er58     Er     0.2054   0.3411   0.0807
Er59     Er     0.0807   0.2054   0.3411
V60     V     0.2086   0.2086   0.2086
Er61     Er     0.1693   0.0911   0.4554
Er62     Er     0.9089   0.9554   0.3307
Er63     Er     0.0446   0.8307   0.5911
V64     V     0.0414   0.9586   0.4586
loop_
_geom_bond_atom_site_label_1
_geom_bond_atom_site_label_2
_geom_bond_distance
_geom_bond_site_symmetry_2
_ccdc_geom_bond_type
Er1     V4    9.998   .     S
Er1     Er29    10.0   .     S
Er1     Er63    10.004   1_655     S
Er2     V4    9.998   1_455     S
Er2     Er27    10.0   .     S
Er2     Er54    10.004   .     S
Er3     V4    9.998   .     S
Er3     Er9    10.0   .     S
Er3     Er41    10.004   .     S
V4     Er2    9.998   1_655     S
Er5     V8    9.998   .     S
Er5     Er31    10.0   .     S
Er5     Er55    10.004   1_556     S
Er6     V8    9.998   1_554     S
Er6     Er11    10.0   .     S
Er6     Er49    10.004   .     S
Er7     V8    9.998   .     S
Er7     Er18    10.0   .     S
Er7     Er43    10.004   .     S
V8     Er6    9.998   1_556     S
Er9     V12    9.998   .     S
Er9     Er59    10.004   1_655     S
Er10     V12    9.998   .     S
Er10     Er22    10.0   .     S
Er10     Er37    10.004   1_554     S
Er11     V12    9.998   .     S
Er11     Er34    10.004   .     S
Er13     V16    9.998   .     S
Er13     Er30    10.0   .     S
Er13     Er51    10.004   1_565     S
Er14     V16    9.998   1_545     S
Er14     Er19    10.0   .     S
Er14     Er61    10.004   .     S
Er15     V16    9.998   .     S
Er15     Er25    10.0   .     S
Er15     Er42    10.004   .     S
V16     Er14    9.998   1_565     S
Er17     V20    9.998   .     S
Er17     Er23    10.0   .     S
Er17     Er45    10.004   1_545     S
Er18     V20    9.998   .     S
Er18     Er58    10.004   1_556     S
Er19     V20    9.998   .     S
Er19     Er38    10.004   .     S
Er21     V24    9.998   1_565     S
Er21     Er26    10.0   .     S
Er21     Er50    10.004   1_554     S
Er22     V24    9.998   1_655     S
Er22     Er62    10.004   1_545     S
Er23     V24    9.998   1_556     S
Er23     Er53    10.004   1_455     S
V24     Er21    9.998   1_545     S
V24     Er22    9.998   1_455     S
V24     Er23    9.998   1_554     S
Er25     V28    9.998   .     S
Er25     Er57    10.004   1_565     S
Er26     V28    9.998   .     S
Er26     Er33    10.004   1_455     S
Er27     V28    9.998   .     S
Er27     Er46    10.004   .     S
Er29     V32    9.998   .     S
Er29     Er39    10.004   .     S
Er30     V32    9.998   .     S
Er30     Er35    10.004   .     S
Er31     V32    9.998   .     S
Er31     Er47    10.004   .     S
Er33     V36    9.998   .     S
Er33     Er55    10.0   .     S
Er33     Er26    10.004   1_655     S
Er34     V36    9.998   .     S
Er34     Er42    10.0   .     S
Er35     V36    9.998   .     S
Er35     Er62    10.0   .     S
Er37     Er10    10.004   1_556     S
Er37     V40    9.998   .     S
Er37     Er51    10.0   .     S
Er38     V40    9.998   .     S
Er38     Er41    10.0   .     S
Er39     V40    9.998   .     S
Er39     Er53    10.0   .     S
Er41     V44    9.998   .     S
Er42     V44    9.998   .     S
Er43     V44    9.998   .     S
Er43     Er46    10.0   .     S
Er45     V48    9.998   .     S
Er45     Er63    10.0   .     S
Er45     Er17    10.004   1_565     S
Er46     V48    9.998   .     S
Er47     V48    9.998   .     S
Er47     Er50    10.0   .     S
Er49     V52    9.998   1_554     S
Er49     Er57    10.0   .     S
Er50     V52    9.998   1_565     S
Er50     Er21    10.004   1_556     S
Er51     V52    9.998   .     S
Er51     Er13    10.004   1_545     S
V52     Er49    9.998   1_556     S
V52     Er50    9.998   1_545     S
Er53     V56    9.998   1_556     S
Er53     Er23    10.004   1_655     S
Er54     V56    9.998   1_455     S
Er54     Er58    10.0   .     S
Er55     V56    9.998   .     S
Er55     Er5    10.004   1_554     S
V56     Er53    9.998   1_554     S
V56     Er54    9.998   1_655     S
Er57     V60    9.998   .     S
Er57     Er25    10.004   1_545     S
Er58     V60    9.998   .     S
Er58     Er18    10.004   1_554     S
Er59     V60    9.998   .     S
Er59     Er61    10.0   .     S
Er59     Er9    10.004   1_455     S
Er61     V64    9.998   1_545     S
Er62     V64    9.998   1_655     S
Er62     Er22    10.004   1_565     S
Er63     V64    9.998   .     S
Er63     Er1    10.004   1_455     S
V64     Er61    9.998   1_565     S
V64     Er62    9.998   1_455     S
