data_fab
_audit_creation_date              2020-02-02
_audit_creation_method            'Pymatgen'
_symmetry_space_group_name_H-M    'P1'
_symmetry_Int_Tables_number       1
loop_
_symmetry_equiv_pos_as_xyz
  x,y,z
_cell_length_a                    34.1421
_cell_length_b                    34.1421
_cell_length_c                    34.1421
_cell_angle_alpha                 90.0
_cell_angle_beta                 90.0
_cell_angle_gamma                 90.0
loop_
_atom_site_label
_atom_site_type_symbol
_atom_site_fract_x
_atom_site_fract_y
_atom_site_fract_z
Er1     Er     0.5   0.5   0.2929
Er2     Er     0.5   0.2929   0.5
Er3     Er     0.2929   0.5   0.5
Er4     Er     0.5   0.5   0.7071
Er5     Er     0.5   0.7071   0.5
Er6     Er     0.7071   0.5   0.5
Er7     Er     0.0   0.2929   0.0
Er8     Er     0.2071   0.5   0.0
Er9     Er     0.7929   0.5   0.0
Er10     Er     0.0   0.5   0.2071
Er11     Er     0.0   0.5   0.7929
Er12     Er     0.0   0.7071   0.0
Er13     Er     0.2929   0.0   0.0
Er14     Er     0.5   0.2071   0.0
Er15     Er     0.5   0.7929   0.0
Er16     Er     0.5   0.0   0.2071
Er17     Er     0.5   0.0   0.7929
Er18     Er     0.7071   0.0   0.0
Er19     Er     0.0   0.0   0.2929
Er20     Er     0.2071   0.0   0.5
Er21     Er     0.7929   0.0   0.5
Er22     Er     0.0   0.2071   0.5
Er23     Er     0.0   0.7929   0.5
Er24     Er     0.0   0.0   0.7071
V25     V     0.0   0.0   0.0
V26     V     0.0   0.5   0.5
V27     V     0.5   0.0   0.5
V28     V     0.5   0.5   0.0
loop_
_geom_bond_atom_site_label_1
_geom_bond_atom_site_label_2
_geom_bond_distance
_geom_bond_site_symmetry_2
_ccdc_geom_bond_type
Er1     V28    10.0   .     S
Er1     Er5    10.0   .     S
Er1     Er3    10.0   .     S
Er1     Er2    10.0   .     S
Er1     Er6    10.0   .     S
Er2     V27    10.0   .     S
Er2     Er3    10.0   .     S
Er2     Er4    10.0   .     S
Er2     Er6    10.0   .     S
Er3     V26    10.0   .     S
Er3     Er5    10.0   .     S
Er3     Er4    10.0   .     S
Er4     V28    10.0   1_556     S
Er4     Er6    10.0   .     S
Er4     Er5    10.0   .     S
Er5     V27    10.0   1_565     S
Er5     Er6    10.0   .     S
Er6     V26    10.0   1_655     S
Er7     V25    10.0   .     S
Er7     Er9    10.0   1_455     S
Er7     Er10    10.0   .     S
Er7     Er8    10.0   .     S
Er7     Er11    10.0   1_554     S
Er8     V28    10.0   .     S
Er8     Er10    10.0   .     S
Er8     Er11    10.0   1_554     S
Er8     Er12    10.0   .     S
Er9     V28    10.0   .     S
Er9     Er7    10.0   1_655     S
Er9     Er10    10.0   1_655     S
Er9     Er12    10.0   1_655     S
Er9     Er11    10.0   1_654     S
Er10     V26    10.0   .     S
Er10     Er9    10.0   1_455     S
Er10     Er12    10.0   .     S
Er11     V26    10.0   .     S
Er11     Er7    10.0   1_556     S
Er11     Er8    10.0   1_556     S
Er11     Er12    10.0   1_556     S
Er11     Er9    10.0   1_456     S
Er12     V25    10.0   1_565     S
Er12     Er11    10.0   1_554     S
Er12     Er9    10.0   1_455     S
Er13     V25    10.0   .     S
Er13     Er15    10.0   1_545     S
Er13     Er16    10.0   .     S
Er13     Er14    10.0   .     S
Er13     Er17    10.0   1_554     S
Er14     V28    10.0   .     S
Er14     Er16    10.0   .     S
Er14     Er17    10.0   1_554     S
Er14     Er18    10.0   .     S
Er15     V28    10.0   .     S
Er15     Er13    10.0   1_565     S
Er15     Er16    10.0   1_565     S
Er15     Er18    10.0   1_565     S
Er15     Er17    10.0   1_564     S
Er16     V27    10.0   .     S
Er16     Er15    10.0   1_545     S
Er16     Er18    10.0   .     S
Er17     V27    10.0   .     S
Er17     Er13    10.0   1_556     S
Er17     Er14    10.0   1_556     S
Er17     Er18    10.0   1_556     S
Er17     Er15    10.0   1_546     S
Er18     V25    10.0   1_655     S
Er18     Er17    10.0   1_554     S
Er18     Er15    10.0   1_545     S
Er19     V25    10.0   .     S
Er19     Er21    10.0   1_455     S
Er19     Er22    10.0   .     S
Er19     Er20    10.0   .     S
Er19     Er23    10.0   1_545     S
Er20     V27    10.0   .     S
Er20     Er22    10.0   .     S
Er20     Er23    10.0   1_545     S
Er20     Er24    10.0   .     S
Er21     V27    10.0   .     S
Er21     Er19    10.0   1_655     S
Er21     Er22    10.0   1_655     S
Er21     Er24    10.0   1_655     S
Er21     Er23    10.0   1_645     S
Er22     V26    10.0   .     S
Er22     Er21    10.0   1_455     S
Er22     Er24    10.0   .     S
Er23     V26    10.0   .     S
Er23     Er19    10.0   1_565     S
Er23     Er20    10.0   1_565     S
Er23     Er24    10.0   1_565     S
Er23     Er21    10.0   1_465     S
Er24     V25    10.0   1_556     S
Er24     Er23    10.0   1_545     S
Er24     Er21    10.0   1_455     S
V25     Er12    10.0   1_545     S
V25     Er18    10.0   1_455     S
V25     Er24    10.0   1_554     S
V26     Er6    10.0   1_455     S
V27     Er5    10.0   1_545     S
V28     Er4    10.0   1_554     S
