data_faue
_audit_creation_date              2020-02-02
_audit_creation_method            'Pymatgen'
_symmetry_space_group_name_H-M    'P1'
_symmetry_Int_Tables_number       1
loop_
_symmetry_equiv_pos_as_xyz
  x,y,z
_cell_length_a                    93.0023
_cell_length_b                    93.0023
_cell_length_c                    93.0023
_cell_angle_alpha                 90.0
_cell_angle_beta                 90.0
_cell_angle_gamma                 90.0
loop_
_atom_site_label
_atom_site_type_symbol
_atom_site_fract_x
_atom_site_fract_y
_atom_site_fract_z
Ce1     Ce     0.0052   0.3638   0.0052
Ce2     Ce     0.3638   0.0052   0.0052
Ce3     Ce     0.0052   0.0052   0.3638
Ce4     Ce     0.3638   0.2448   0.2448
Ce5     Ce     0.5052   0.5052   0.3638
Ce6     Ce     0.5052   0.3638   0.5052
Ce7     Ce     0.3638   0.7448   0.7448
Ce8     Ce     0.3638   0.5052   0.5052
Ce9     Ce     0.5052   0.8638   0.0052
Ce10     Ce     0.8638   0.5052   0.0052
Ce11     Ce     0.8862   0.2448   0.0052
Ce12     Ce     0.7448   0.3862   0.0052
Ce13     Ce     0.8638   0.0052   0.5052
Ce14     Ce     0.0052   0.8862   0.2448
Ce15     Ce     0.2552   0.4948   0.1138
Ce16     Ce     0.0052   0.8638   0.5052
Ce17     Ce     0.3862   0.7448   0.0052
Ce18     Ce     0.0052   0.3862   0.7448
Ce19     Ce     0.2448   0.0052   0.8862
Ce20     Ce     0.2448   0.8862   0.0052
Ce21     Ce     0.3862   0.0052   0.7448
Ce22     Ce     0.0052   0.2448   0.8862
Ce23     Ce     0.1138   0.4948   0.2552
Ce24     Ce     0.2552   0.1362   0.7552
Ce25     Ce     0.4948   0.4948   0.6362
Ce26     Ce     0.7448   0.8638   0.2448
Ce27     Ce     0.4948   0.6362   0.4948
Ce28     Ce     0.8862   0.0052   0.2448
Ce29     Ce     0.5052   0.0052   0.8638
Ce30     Ce     0.6362   0.2552   0.2552
Ce31     Ce     0.0052   0.5052   0.8638
Ce32     Ce     0.2448   0.5052   0.3862
Ce33     Ce     0.7552   0.4948   0.6138
Ce34     Ce     0.3862   0.2448   0.5052
Ce35     Ce     0.2448   0.7448   0.8638
Ce36     Ce     0.0052   0.7448   0.3862
Ce37     Ce     0.6138   0.9948   0.2552
Ce38     Ce     0.6362   0.4948   0.4948
Ce39     Ce     0.7448   0.0052   0.3862
Ce40     Ce     0.7552   0.2552   0.1362
Ce41     Ce     0.9948   0.1138   0.7552
Ce42     Ce     0.1138   0.2552   0.4948
Ce43     Ce     0.4948   0.2552   0.1138
Ce44     Ce     0.8862   0.5052   0.7448
Ce45     Ce     0.8638   0.7448   0.2448
Ce46     Ce     0.8862   0.7448   0.5052
Ce47     Ce     0.2552   0.1138   0.4948
Ce48     Ce     0.1138   0.7552   0.9948
Ce49     Ce     0.5052   0.3862   0.2448
Ce50     Ce     0.7552   0.9948   0.1138
Ce51     Ce     0.5052   0.7448   0.8862
Ce52     Ce     0.7448   0.8862   0.5052
Ce53     Ce     0.2552   0.6138   0.9948
Ce54     Ce     0.2552   0.6362   0.2552
Ce55     Ce     0.2552   0.2552   0.6362
Ce56     Ce     0.5052   0.2448   0.3862
Ce57     Ce     0.8638   0.2448   0.7448
Ce58     Ce     0.4948   0.1138   0.2552
Ce59     Ce     0.9948   0.2552   0.6138
Ce60     Ce     0.2448   0.3862   0.5052
Ce61     Ce     0.6138   0.2552   0.9948
Ce62     Ce     0.5052   0.8862   0.7448
Ce63     Ce     0.3862   0.5052   0.2448
Ce64     Ce     0.7448   0.5052   0.8862
Ce65     Ce     0.2448   0.8638   0.7448
Ce66     Ce     0.9948   0.6362   0.9948
Ce67     Ce     0.9948   0.6138   0.2552
Ce68     Ce     0.9948   0.9948   0.6362
Ce69     Ce     0.7448   0.2448   0.8638
Ce70     Ce     0.4948   0.1362   0.9948
Ce71     Ce     0.1138   0.9948   0.7552
Ce72     Ce     0.1362   0.7552   0.2552
Ce73     Ce     0.4948   0.7552   0.6138
Ce74     Ce     0.7552   0.7552   0.6362
Ce75     Ce     0.1362   0.4948   0.9948
Ce76     Ce     0.4948   0.9948   0.1362
Ce77     Ce     0.2552   0.9948   0.6138
Ce78     Ce     0.7552   0.6138   0.4948
Ce79     Ce     0.7552   0.6362   0.7552
Ce80     Ce     0.6138   0.4948   0.7552
Ce81     Ce     0.6362   0.9948   0.9948
Ce82     Ce     0.9948   0.1362   0.4948
Ce83     Ce     0.9948   0.4948   0.1362
Ce84     Ce     0.7552   0.1138   0.9948
Ce85     Ce     0.4948   0.6138   0.7552
Ce86     Ce     0.6362   0.7552   0.7552
Ce87     Ce     0.6138   0.7552   0.4948
Ce88     Ce     0.9948   0.7552   0.1138
Ce89     Ce     0.1362   0.2552   0.7552
Ce90     Ce     0.1362   0.9948   0.4948
Ce91     Ce     0.2552   0.7552   0.1362
Ce92     Ce     0.7552   0.1362   0.2552
Ce93     Ce     0.7448   0.3638   0.7448
Ce94     Ce     0.2448   0.2448   0.3638
Ce95     Ce     0.2448   0.3638   0.2448
Ti96     Ti     0.7913   0.1732   0.0768
Ti97     Ti     0.2087   0.4232   0.3268
Ti98     Ti     0.7913   0.0768   0.1732
Ti99     Ti     0.1732   0.5768   0.2913
Ti100     Ti     0.1732   0.0768   0.7913
Ti101     Ti     0.9587   0.0768   0.5768
Ti102     Ti     0.0768   0.5768   0.9587
Ti103     Ti     0.7913   0.5768   0.6732
Ti104     Ti     0.5768   0.6732   0.7913
Ti105     Ti     0.0768   0.7913   0.1732
Ti106     Ti     0.1732   0.7913   0.0768
Ti107     Ti     0.0768   0.1732   0.7913
Ti108     Ti     0.3268   0.5413   0.3268
Ti109     Ti     0.5413   0.3268   0.3268
Ti110     Ti     0.8268   0.8268   0.5413
Ti111     Ti     0.5413   0.8268   0.8268
Ti112     Ti     0.0768   0.4587   0.0768
Ti113     Ti     0.8268   0.5413   0.8268
Ti114     Ti     0.4587   0.0768   0.0768
Ti115     Ti     0.0768   0.0768   0.4587
Ti116     Ti     0.2087   0.3268   0.4232
Ti117     Ti     0.2913   0.5768   0.1732
Ti118     Ti     0.6732   0.9587   0.1732
Ti119     Ti     0.7087   0.9232   0.3268
V120     V     0.5   0.6092   0.3908
V121     V     0.3592   0.6092   0.25
Er122     Er     0.3186   0.6805   0.1805
Er123     Er     0.4305   0.5686   0.3195
Er124     Er     0.5695   0.6805   0.4314
V125     V     0.3592   0.75   0.1092
V126     V     0.5   0.8908   0.1092
Er127     Er     0.4305   0.8195   0.0686
V128     V     0.6408   0.75   0.3908
V129     V     0.6408   0.8908   0.25
Er130     Er     0.5695   0.9314   0.1805
Er131     Er     0.6814   0.8195   0.3195
Ti132     Ti     0.4232   0.9232   0.0413
Ti133     Ti     0.4587   0.1732   0.1732
V134     V     0.25   0.1092   0.8592
Er135     Er     0.3195   0.0686   0.9305
V136     V     0.3908   0.1092   0.0
V137     V     0.3908   0.25   0.1408
Er138     Er     0.3195   0.3195   0.1814
V139     V     0.25   0.3908   0.1408
Er140     Er     0.1805   0.4314   0.0695
Er141     Er     0.4314   0.1805   0.0695
V142     V     0.1092   0.3908   0.0
V143     V     0.1092   0.25   0.8592
Er144     Er     0.0686   0.3195   0.9305
Er145     Er     0.1805   0.1805   0.8186
Ti146     Ti     0.6732   0.2913   0.0768
Ti147     Ti     0.5768   0.4587   0.5768
Ti148     Ti     0.1732   0.1732   0.4587
Ti149     Ti     0.7087   0.4232   0.8268
Ti150     Ti     0.3268   0.3268   0.5413
Ti151     Ti     0.4587   0.5768   0.5768
Ti152     Ti     0.1732   0.6732   0.9587
Ti153     Ti     0.4232   0.7087   0.8268
Ti154     Ti     0.6732   0.5768   0.7913
Ti155     Ti     0.3268   0.7087   0.9232
Ti156     Ti     0.4587   0.6732   0.6732
V157     V     0.25   0.6408   0.8908
Er158     Er     0.1805   0.5695   0.9314
V159     V     0.3908   0.6408   0.75
Er160     Er     0.3195   0.6814   0.8195
V161     V     0.1092   0.5   0.8908
Er162     Er     0.0686   0.4305   0.8195
V163     V     0.3908   0.5   0.6092
V164     V     0.25   0.3592   0.6092
V165     V     0.1092   0.3592   0.75
Er166     Er     0.1805   0.3186   0.6805
Er167     Er     0.3195   0.4305   0.5686
Er168     Er     0.4314   0.5695   0.6805
V169     V     0.3592   0.5   0.1408
V170     V     0.5   0.3592   0.1408
Er171     Er     0.4305   0.4305   0.1814
V172     V     0.6408   0.3592   0.0
Er173     Er     0.5695   0.3186   0.0695
V174     V     0.6408   0.5   0.8592
Er175     Er     0.6814   0.4305   0.9305
V176     V     0.3592   0.6408   0.0
Er177     Er     0.3186   0.5695   0.0695
V178     V     0.5   0.6408   0.8592
Er179     Er     0.4305   0.6814   0.9305
Er180     Er     0.5695   0.5695   0.8186
Ti181     Ti     0.4232   0.3268   0.2087
Ti182     Ti     0.2913   0.6732   0.0768
Ti183     Ti     0.0413   0.4232   0.9232
Ti184     Ti     0.0413   0.3268   0.8268
Ti185     Ti     0.1732   0.2913   0.5768
Ti186     Ti     0.1732   0.4587   0.1732
Ti187     Ti     0.0413   0.9232   0.4232
Ti188     Ti     0.0413   0.8268   0.3268
V189     V     0.1092   0.75   0.3592
V190     V     0.1092   0.8908   0.5
Er191     Er     0.0686   0.8195   0.4305
V192     V     0.3908   0.75   0.6408
Er193     Er     0.4314   0.6805   0.5695
V194     V     0.25   0.6092   0.3592
V195     V     0.3908   0.6092   0.5
Er196     Er     0.3195   0.5686   0.4305
V197     V     0.25   0.8908   0.6408
Er198     Er     0.1805   0.9314   0.5695
Er199     Er     0.3195   0.8195   0.6814
Er200     Er     0.1805   0.6805   0.3186
Ti201     Ti     0.3268   0.9232   0.7087
Ti202     Ti     0.0768   0.6732   0.2913
Ti203     Ti     0.5768   0.2913   0.1732
Ti204     Ti     0.2913   0.1732   0.5768
V205     V     0.3592   0.1092   0.75
V206     V     0.5   0.1092   0.8908
Er207     Er     0.4305   0.0686   0.8195
V208     V     0.6408   0.3908   0.75
Er209     Er     0.5695   0.4314   0.6805
V210     V     0.6408   0.25   0.8908
Er211     Er     0.5695   0.1805   0.9314
Er212     Er     0.6814   0.3195   0.8195
V213     V     0.5   0.3908   0.6092
Er214     Er     0.4305   0.3195   0.5686
V215     V     0.3592   0.25   0.6092
Er216     Er     0.3186   0.1805   0.6805
Ti217     Ti     0.4232   0.0413   0.9232
Ti218     Ti     0.2913   0.0768   0.6732
Ti219     Ti     0.4232   0.2087   0.3268
V220     V     0.1092   0.0   0.3908
Er221     Er     0.1805   0.0695   0.4314
V222     V     0.25   0.1408   0.3908
V223     V     0.3908   0.1408   0.25
Er224     Er     0.3195   0.1814   0.3195
V225     V     0.1092   0.8592   0.25
Er226     Er     0.0686   0.9305   0.3195
V227     V     0.3908   0.0   0.1092
V228     V     0.25   0.8592   0.1092
Er229     Er     0.3195   0.9305   0.0686
Er230     Er     0.1805   0.8186   0.1805
Er231     Er     0.4314   0.0695   0.1805
Ti232     Ti     0.5768   0.7913   0.6732
Ti233     Ti     0.5768   0.1732   0.2913
Ti234     Ti     0.6732   0.0768   0.2913
V235     V     0.6408   0.8592   0.5
Er236     Er     0.5695   0.8186   0.5695
V237     V     0.6408   0.0   0.3592
V238     V     0.5   0.1408   0.3592
V239     V     0.3592   0.1408   0.5
Er240     Er     0.4305   0.1814   0.4305
Er241     Er     0.5695   0.0695   0.3186
Er242     Er     0.6814   0.9305   0.4305
V243     V     0.5   0.8592   0.6408
Er244     Er     0.4305   0.9305   0.6814
V245     V     0.3592   0.0   0.6408
Er246     Er     0.3186   0.0695   0.5695
Ti247     Ti     0.4232   0.8268   0.7087
Ti248     Ti     0.7087   0.8268   0.4232
Ti249     Ti     0.3268   0.2087   0.4232
Ti250     Ti     0.9587   0.1732   0.6732
Ti251     Ti     0.6732   0.4587   0.6732
V252     V     0.8908   0.1092   0.5
Er253     Er     0.8195   0.0686   0.4305
V254     V     0.75   0.1092   0.3592
V255     V     0.6092   0.25   0.3592
V256     V     0.6092   0.3908   0.5
Er257     Er     0.5686   0.3195   0.4305
Er258     Er     0.6805   0.1805   0.3186
V259     V     0.75   0.3908   0.6408
V260     V     0.8908   0.25   0.6408
Er261     Er     0.8195   0.3195   0.6814
Er262     Er     0.9314   0.1805   0.5695
Er263     Er     0.6805   0.4314   0.5695
Ti264     Ti     0.9232   0.3268   0.7087
Ti265     Ti     0.9232   0.0413   0.4232
Ti266     Ti     0.7913   0.6732   0.5768
V267     V     0.0   0.3592   0.6408
V268     V     0.8592   0.5   0.6408
Er269     Er     0.9305   0.4305   0.6814
V270     V     0.1408   0.5   0.3592
Er271     Er     0.1814   0.4305   0.4305
V272     V     0.1408   0.3592   0.5
Er273     Er     0.0695   0.3186   0.5695
V274     V     0.8592   0.6408   0.5
Er275     Er     0.9305   0.6814   0.4305
V276     V     0.0   0.6408   0.3592
Er277     Er     0.0695   0.5695   0.3186
Er278     Er     0.8186   0.5695   0.5695
Ti279     Ti     0.8268   0.4232   0.7087
Ti280     Ti     0.8268   0.7087   0.4232
V281     V     0.0   0.3908   0.1092
V282     V     0.8592   0.25   0.1092
Er283     Er     0.9305   0.3195   0.0686
V284     V     0.0   0.1092   0.3908
V285     V     0.8592   0.1092   0.25
Er286     Er     0.8186   0.1805   0.1805
Er287     Er     0.9305   0.0686   0.3195
V288     V     0.1408   0.25   0.3908
V289     V     0.1408   0.3908   0.25
Er290     Er     0.1814   0.3195   0.3195
Er291     Er     0.0695   0.1805   0.4314
Er292     Er     0.0695   0.4314   0.1805
Ti293     Ti     0.8268   0.3268   0.0413
Ti294     Ti     0.6732   0.6732   0.4587
Ti295     Ti     0.5768   0.5768   0.4587
V296     V     0.75   0.3592   0.1092
V297     V     0.8908   0.5   0.1092
Er298     Er     0.9314   0.5695   0.1805
Er299     Er     0.8195   0.4305   0.0686
V300     V     0.8908   0.6408   0.25
Er301     Er     0.8195   0.6814   0.3195
V302     V     0.6092   0.3592   0.25
V303     V     0.75   0.6408   0.3908
Er304     Er     0.6805   0.5695   0.4314
V305     V     0.6092   0.5   0.3908
Er306     Er     0.5686   0.4305   0.3195
Er307     Er     0.6805   0.3186   0.1805
Ti308     Ti     0.9232   0.7087   0.3268
Ti309     Ti     0.9232   0.4232   0.0413
Ti310     Ti     0.8268   0.0413   0.3268
Ti311     Ti     0.3268   0.8268   0.0413
Ti312     Ti     0.7087   0.3268   0.9232
Ti313     Ti     0.0768   0.2913   0.6732
Ti314     Ti     0.3268   0.0413   0.8268
Ti315     Ti     0.6732   0.7913   0.5768
Ti316     Ti     0.5768   0.9587   0.0768
Ti317     Ti     0.5768   0.0768   0.9587
Ti318     Ti     0.0768   0.9587   0.5768
V319     V     0.0   0.8592   0.1408
V320     V     0.8592   0.0   0.1408
Er321     Er     0.9305   0.9305   0.1814
V322     V     0.1408   0.0   0.8592
V323     V     0.1408   0.8592   0.0
Er324     Er     0.1814   0.9305   0.9305
Er325     Er     0.0695   0.8186   0.0695
V326     V     0.8592   0.1408   0.0
Er327     Er     0.8186   0.0695   0.0695
V328     V     0.0   0.1408   0.8592
Er329     Er     0.9305   0.1814   0.9305
Er330     Er     0.0695   0.0695   0.8186
V331     V     0.75   0.6092   0.8592
Er332     Er     0.6805   0.6805   0.8186
V333     V     0.75   0.8908   0.1408
V334     V     0.8908   0.75   0.1408
Er335     Er     0.9314   0.6805   0.0695
Er336     Er     0.8195   0.8195   0.1814
V337     V     0.8908   0.6092   0.0
Er338     Er     0.8195   0.5686   0.9305
V339     V     0.6092   0.8908   0.0
Er340     Er     0.6805   0.9314   0.0695
V341     V     0.6092   0.75   0.8592
Er342     Er     0.5686   0.8195   0.9305
Ti343     Ti     0.8268   0.9232   0.2087
Ti344     Ti     0.5413   0.9232   0.9232
Ti345     Ti     0.8268   0.2087   0.9232
V346     V     0.8908   0.0   0.6092
V347     V     0.75   0.8592   0.6092
Er348     Er     0.8195   0.9305   0.5686
Er349     Er     0.9314   0.0695   0.6805
V350     V     0.6092   0.8592   0.75
Er351     Er     0.6805   0.8186   0.6805
V352     V     0.75   0.1408   0.8908
V353     V     0.8908   0.1408   0.75
Er354     Er     0.8195   0.1814   0.8195
V355     V     0.6092   0.0   0.8908
Er356     Er     0.6805   0.0695   0.9314
Er357     Er     0.5686   0.9305   0.8195
Ti358     Ti     0.9232   0.2087   0.8268
V359     V     0.8592   0.6092   0.75
V360     V     0.0   0.6092   0.8908
Er361     Er     0.9305   0.5686   0.8195
V362     V     0.8592   0.75   0.6092
Er363     Er     0.8186   0.6805   0.6805
V364     V     0.0   0.8908   0.6092
V365     V     0.1408   0.8908   0.75
V366     V     0.1408   0.75   0.8908
Er367     Er     0.1814   0.8195   0.8195
Er368     Er     0.0695   0.9314   0.6805
Er369     Er     0.9305   0.8195   0.5686
Er370     Er     0.0695   0.6805   0.9314
Ti371     Ti     0.2087   0.8268   0.9232
Ti372     Ti     0.2087   0.9232   0.8268
Ti373     Ti     0.9232   0.9232   0.5413
Ti374     Ti     0.9232   0.5413   0.9232
Ti375     Ti     0.9232   0.8268   0.2087
Ti376     Ti     0.9587   0.6732   0.1732
Ti377     Ti     0.6732   0.1732   0.9587
Ti378     Ti     0.1732   0.9587   0.6732
Ti379     Ti     0.3268   0.4232   0.2087
Ti380     Ti     0.9587   0.5768   0.0768
Ti381     Ti     0.5413   0.4232   0.4232
Ti382     Ti     0.4232   0.5413   0.4232
Ti383     Ti     0.4232   0.4232   0.5413
Ce384     Ce     0.7448   0.7448   0.3638
loop_
_geom_bond_atom_site_label_1
_geom_bond_atom_site_label_2
_geom_bond_distance
_geom_bond_site_symmetry_2
_ccdc_geom_bond_type
Ce1     Ti309    10.0   1_455     S
Ce1     Ti183    10.0   1_554     S
Ce1     V142    10.0   .     S
Ce1     Er144    10.0   1_554     S
Ce1     V281    10.0   .     S
Ce1     Er283    10.0   1_455     S
Ce2     Ti217    10.0   1_554     S
Ce2     Ti132    10.0   1_545     S
Ce2     V136    10.0   .     S
Ce2     Er135    10.0   1_554     S
Ce2     V227    10.0   .     S
Ce2     Er229    10.0   1_545     S
Ce3     Ti187    10.0   1_545     S
Ce3     Ti265    10.0   1_455     S
Ce3     V220    10.0   .     S
Ce3     Er226    10.0   1_545     S
Ce3     V284    10.0   .     S
Ce3     Er287    10.0   1_455     S
Ce4     Ti181    10.0   .     S
Ce4     Ti219    10.0   .     S
Ce4     V137    10.0   .     S
Ce4     Er138    10.0   .     S
Ce4     V223    10.0   .     S
Ce4     Er224    10.0   .     S
Ce5     Ti381    10.0   .     S
Ce5     Ti382    10.0   .     S
Ce5     V120    10.0   .     S
Ce5     Er123    10.0   .     S
Ce5     V305    10.0   .     S
Ce5     Er306    10.0   .     S
Ce6     Ti383    10.0   .     S
Ce6     Ti381    10.0   .     S
Ce6     V213    10.0   .     S
Ce6     Er214    10.0   .     S
Ce6     V256    10.0   .     S
Ce6     Er257    10.0   .     S
Ce7     Ti153    10.0   .     S
Ce7     Ti247    10.0   .     S
Ce7     V159    10.0   .     S
Ce7     Er160    10.0   .     S
Ce7     V192    10.0   .     S
Ce7     Er199    10.0   .     S
Ce8     Ti382    10.0   .     S
Ce8     Ti383    10.0   .     S
Ce8     V163    10.0   .     S
Ce8     Er167    10.0   .     S
Ce8     V195    10.0   .     S
Ce8     Er196    10.0   .     S
Ce9     Ti132    10.0   .     S
Ce9     Ti344    10.0   1_554     S
Ce9     V126    10.0   .     S
Ce9     Er127    10.0   .     S
Ce9     V339    10.0   .     S
Ce9     Er342    10.0   1_554     S
Ce10     Ti309    10.0   .     S
Ce10     Ti374    10.0   1_554     S
Ce10     V297    10.0   .     S
Ce10     Er299    10.0   .     S
Ce10     V337    10.0   .     S
Ce10     Er338    10.0   1_554     S
Ce11     Ti345    10.0   1_554     S
Ce11     Ti293    10.0   .     S
Ce11     V282    10.0   .     S
Ce11     Er283    10.0   .     S
Ce11     V326    10.0   .     S
Ce11     Er329    10.0   1_554     S
Ce12     Ti293    10.0   .     S
Ce12     Ti312    10.0   1_554     S
Ce12     V172    10.0   .     S
Ce12     Er175    10.0   1_554     S
Ce12     V296    10.0   .     S
Ce12     Er299    10.0   .     S
Ce13     Ti265    10.0   .     S
Ce13     Ti373    10.0   1_545     S
Ce13     V252    10.0   .     S
Ce13     Er253    10.0   .     S
Ce13     V346    10.0   .     S
Ce13     Er348    10.0   1_545     S
Ce14     Ti188    10.0   .     S
Ce14     Ti375    10.0   1_455     S
Ce14     V225    10.0   .     S
Ce14     Er226    10.0   .     S
Ce14     V319    10.0   .     S
Ce14     Er321    10.0   1_455     S
Ce15     Ti117    10.0   .     S
Ce15     Ti186    10.0   .     S
Ce15     V139    10.0   .     S
Ce15     Er140    10.0   .     S
Ce15     V169    10.0   .     S
Ce15     Er177    10.0   .     S
Ce16     Ti187    10.0   .     S
Ce16     Ti373    10.0   1_455     S
Ce16     V190    10.0   .     S
Ce16     Er191    10.0   .     S
Ce16     V364    10.0   .     S
Ce16     Er369    10.0   1_455     S
Ce17     Ti311    10.0   .     S
Ce17     Ti155    10.0   1_554     S
Ce17     V125    10.0   .     S
Ce17     Er127    10.0   .     S
Ce17     V176    10.0   .     S
Ce17     Er179    10.0   1_554     S
Ce18     Ti184    10.0   .     S
Ce18     Ti264    10.0   1_455     S
Ce18     V165    10.0   .     S
Ce18     Er162    10.0   .     S
Ce18     V267    10.0   .     S
Ce18     Er269    10.0   1_455     S
Ce19     Ti314    10.0   .     S
Ce19     Ti372    10.0   1_545     S
Ce19     V134    10.0   .     S
Ce19     Er135    10.0   .     S
Ce19     V322    10.0   .     S
Ce19     Er324    10.0   1_545     S
Ce20     Ti311    10.0   .     S
Ce20     Ti371    10.0   1_554     S
Ce20     V228    10.0   .     S
Ce20     Er229    10.0   .     S
Ce20     V323    10.0   .     S
Ce20     Er324    10.0   1_554     S
Ce21     Ti314    10.0   .     S
Ce21     Ti201    10.0   1_545     S
Ce21     V205    10.0   .     S
Ce21     Er207    10.0   .     S
Ce21     V245    10.0   .     S
Ce21     Er244    10.0   1_545     S
Ce22     Ti184    10.0   .     S
Ce22     Ti358    10.0   1_455     S
Ce22     V143    10.0   .     S
Ce22     Er144    10.0   .     S
Ce22     V328    10.0   .     S
Ce22     Er329    10.0   1_455     S
Ce23     Ti99    10.0   .     S
Ce23     Ti186    10.0   .     S
Ce23     V270    10.0   .     S
Ce23     Er277    10.0   .     S
Ce23     V289    10.0   .     S
Ce23     Er292    10.0   .     S
Ce24     Ti218    10.0   .     S
Ce24     Ti100    10.0   .     S
Ce24     V134    10.0   .     S
Ce24     Er145    10.0   .     S
Ce24     V205    10.0   .     S
Ce24     Er216    10.0   .     S
Ce25     Ti147    10.0   .     S
Ce25     Ti151    10.0   .     S
Ce25     V163    10.0   .     S
Ce25     Er168    10.0   .     S
Ce25     V213    10.0   .     S
Ce25     Er209    10.0   .     S
Ce26     Ti343    10.0   .     S
Ce26     Ti119    10.0   .     S
Ce26     V129    10.0   .     S
Ce26     Er131    10.0   .     S
Ce26     V333    10.0   .     S
Ce26     Er336    10.0   .     S
Ce27     Ti151    10.0   .     S
Ce27     Ti295    10.0   .     S
Ce27     V120    10.0   .     S
Ce27     Er124    10.0   .     S
Ce27     V195    10.0   .     S
Ce27     Er193    10.0   .     S
Ce28     Ti310    10.0   .     S
Ce28     Ti343    10.0   1_545     S
Ce28     V285    10.0   .     S
Ce28     Er287    10.0   .     S
Ce28     V320    10.0   .     S
Ce28     Er321    10.0   1_545     S
Ce29     Ti217    10.0   .     S
Ce29     Ti344    10.0   1_545     S
Ce29     V206    10.0   .     S
Ce29     Er207    10.0   .     S
Ce29     V355    10.0   .     S
Ce29     Er357    10.0   1_545     S
Ce30     Ti203    10.0   .     S
Ce30     Ti233    10.0   .     S
Ce30     V255    10.0   .     S
Ce30     Er258    10.0   .     S
Ce30     V302    10.0   .     S
Ce30     Er307    10.0   .     S
Ce31     Ti183    10.0   .     S
Ce31     Ti374    10.0   1_455     S
Ce31     V161    10.0   .     S
Ce31     Er162    10.0   .     S
Ce31     V360    10.0   .     S
Ce31     Er361    10.0   1_455     S
Ce32     Ti97    10.0   .     S
Ce32     Ti108    10.0   .     S
Ce32     V194    10.0   .     S
Ce32     Er196    10.0   .     S
Ce32     V270    10.0   .     S
Ce32     Er271    10.0   .     S
Ce33     Ti103    10.0   .     S
Ce33     Ti251    10.0   .     S
Ce33     V259    10.0   .     S
Ce33     Er263    10.0   .     S
Ce33     V268    10.0   .     S
Ce33     Er278    10.0   .     S
Ce34     Ti249    10.0   .     S
Ce34     Ti150    10.0   .     S
Ce34     V215    10.0   .     S
Ce34     Er214    10.0   .     S
Ce34     V239    10.0   .     S
Ce34     Er240    10.0   .     S
Ce35     Ti371    10.0   .     S
Ce35     Ti155    10.0   .     S
Ce35     V157    10.0   .     S
Ce35     Er160    10.0   .     S
Ce35     V366    10.0   .     S
Ce35     Er367    10.0   .     S
Ce36     Ti188    10.0   .     S
Ce36     Ti308    10.0   1_455     S
Ce36     V189    10.0   .     S
Ce36     Er191    10.0   .     S
Ce36     V276    10.0   .     S
Ce36     Er275    10.0   1_455     S
Ce37     Ti234    10.0   1_565     S
Ce37     Ti118    10.0   .     S
Ce37     V129    10.0   .     S
Ce37     Er130    10.0   .     S
Ce37     V237    10.0   1_565     S
Ce37     Er241    10.0   1_565     S
Ce38     Ti295    10.0   .     S
Ce38     Ti147    10.0   .     S
Ce38     V256    10.0   .     S
Ce38     Er263    10.0   .     S
Ce38     V305    10.0   .     S
Ce38     Er304    10.0   .     S
Ce39     Ti310    10.0   .     S
Ce39     Ti119    10.0   1_545     S
Ce39     V237    10.0   .     S
Ce39     Er242    10.0   1_545     S
Ce39     V254    10.0   .     S
Ce39     Er253    10.0   .     S
Ce40     Ti146    10.0   .     S
Ce40     Ti96    10.0   .     S
Ce40     V282    10.0   .     S
Ce40     Er286    10.0   .     S
Ce40     V296    10.0   .     S
Ce40     Er307    10.0   .     S
Ce41     Ti107    10.0   1_655     S
Ce41     Ti250    10.0   .     S
Ce41     V328    10.0   1_655     S
Ce41     Er330    10.0   1_655     S
Ce41     V353    10.0   .     S
Ce41     Er349    10.0   .     S
Ce42     Ti185    10.0   .     S
Ce42     Ti148    10.0   .     S
Ce42     V272    10.0   .     S
Ce42     Er273    10.0   .     S
Ce42     V288    10.0   .     S
Ce42     Er291    10.0   .     S
Ce43     Ti203    10.0   .     S
Ce43     Ti133    10.0   .     S
Ce43     V137    10.0   .     S
Ce43     Er141    10.0   .     S
Ce43     V170    10.0   .     S
Ce43     Er173    10.0   .     S
Ce44     Ti113    10.0   .     S
Ce44     Ti279    10.0   .     S
Ce44     V268    10.0   .     S
Ce44     Er269    10.0   .     S
Ce44     V359    10.0   .     S
Ce44     Er361    10.0   .     S
Ce45     Ti375    10.0   .     S
Ce45     Ti308    10.0   .     S
Ce45     V300    10.0   .     S
Ce45     Er301    10.0   .     S
Ce45     V334    10.0   .     S
Ce45     Er336    10.0   .     S
Ce46     Ti110    10.0   .     S
Ce46     Ti280    10.0   .     S
Ce46     V274    10.0   .     S
Ce46     Er275    10.0   .     S
Ce46     V362    10.0   .     S
Ce46     Er369    10.0   .     S
Ce47     Ti204    10.0   .     S
Ce47     Ti148    10.0   .     S
Ce47     V222    10.0   .     S
Ce47     Er221    10.0   .     S
Ce47     V239    10.0   .     S
Ce47     Er246    10.0   .     S
Ce48     Ti106    10.0   1_556     S
Ce48     Ti152    10.0   .     S
Ce48     V323    10.0   1_556     S
Ce48     Er325    10.0   1_556     S
Ce48     V366    10.0   .     S
Ce48     Er370    10.0   .     S
Ce49     Ti181    10.0   .     S
Ce49     Ti109    10.0   .     S
Ce49     V170    10.0   .     S
Ce49     Er171    10.0   .     S
Ce49     V302    10.0   .     S
Ce49     Er306    10.0   .     S
Ce50     Ti98    10.0   1_565     S
Ce50     Ti118    10.0   .     S
Ce50     V320    10.0   1_565     S
Ce50     Er327    10.0   1_565     S
Ce50     V333    10.0   .     S
Ce50     Er340    10.0   .     S
Ce51     Ti111    10.0   .     S
Ce51     Ti153    10.0   .     S
Ce51     V178    10.0   .     S
Ce51     Er179    10.0   .     S
Ce51     V341    10.0   .     S
Ce51     Er342    10.0   .     S
Ce52     Ti110    10.0   .     S
Ce52     Ti248    10.0   .     S
Ce52     V235    10.0   .     S
Ce52     Er242    10.0   .     S
Ce52     V347    10.0   .     S
Ce52     Er348    10.0   .     S
Ce53     Ti182    10.0   1_556     S
Ce53     Ti152    10.0   .     S
Ce53     V157    10.0   .     S
Ce53     Er158    10.0   .     S
Ce53     V176    10.0   1_556     S
Ce53     Er177    10.0   1_556     S
Ce54     Ti117    10.0   .     S
Ce54     Ti99    10.0   .     S
Ce54     V121    10.0   .     S
Ce54     Er122    10.0   .     S
Ce54     V194    10.0   .     S
Ce54     Er200    10.0   .     S
Ce55     Ti185    10.0   .     S
Ce55     Ti204    10.0   .     S
Ce55     V164    10.0   .     S
Ce55     Er166    10.0   .     S
Ce55     V215    10.0   .     S
Ce55     Er216    10.0   .     S
Ce56     Ti219    10.0   .     S
Ce56     Ti109    10.0   .     S
Ce56     V238    10.0   .     S
Ce56     Er240    10.0   .     S
Ce56     V255    10.0   .     S
Ce56     Er257    10.0   .     S
Ce57     Ti358    10.0   .     S
Ce57     Ti264    10.0   .     S
Ce57     V260    10.0   .     S
Ce57     Er261    10.0   .     S
Ce57     V353    10.0   .     S
Ce57     Er354    10.0   .     S
Ce58     Ti233    10.0   .     S
Ce58     Ti133    10.0   .     S
Ce58     V223    10.0   .     S
Ce58     Er231    10.0   .     S
Ce58     V238    10.0   .     S
Ce58     Er241    10.0   .     S
Ce59     Ti313    10.0   1_655     S
Ce59     Ti250    10.0   .     S
Ce59     V260    10.0   .     S
Ce59     Er262    10.0   .     S
Ce59     V267    10.0   1_655     S
Ce59     Er273    10.0   1_655     S
Ce60     Ti150    10.0   .     S
Ce60     Ti116    10.0   .     S
Ce60     V164    10.0   .     S
Ce60     Er167    10.0   .     S
Ce60     V272    10.0   .     S
Ce60     Er271    10.0   .     S
Ce61     Ti146    10.0   1_556     S
Ce61     Ti377    10.0   .     S
Ce61     V172    10.0   1_556     S
Ce61     Er173    10.0   1_556     S
Ce61     V210    10.0   .     S
Ce61     Er211    10.0   .     S
Ce62     Ti111    10.0   .     S
Ce62     Ti247    10.0   .     S
Ce62     V243    10.0   .     S
Ce62     Er244    10.0   .     S
Ce62     V350    10.0   .     S
Ce62     Er357    10.0   .     S
Ce63     Ti108    10.0   .     S
Ce63     Ti379    10.0   .     S
Ce63     V121    10.0   .     S
Ce63     Er123    10.0   .     S
Ce63     V169    10.0   .     S
Ce63     Er171    10.0   .     S
Ce64     Ti113    10.0   .     S
Ce64     Ti149    10.0   .     S
Ce64     V174    10.0   .     S
Ce64     Er175    10.0   .     S
Ce64     V331    10.0   .     S
Ce64     Er338    10.0   .     S
Ce65     Ti372    10.0   .     S
Ce65     Ti201    10.0   .     S
Ce65     V197    10.0   .     S
Ce65     Er199    10.0   .     S
Ce65     V365    10.0   .     S
Ce65     Er367    10.0   .     S
Ce66     Ti380    10.0   1_556     S
Ce66     Ti102    10.0   1_655     S
Ce66     V337    10.0   1_556     S
Ce66     Er335    10.0   1_556     S
Ce66     V360    10.0   1_655     S
Ce66     Er370    10.0   1_655     S
Ce67     Ti202    10.0   1_655     S
Ce67     Ti376    10.0   .     S
Ce67     V276    10.0   1_655     S
Ce67     Er277    10.0   1_655     S
Ce67     V300    10.0   .     S
Ce67     Er298    10.0   .     S
Ce68     Ti318    10.0   1_655     S
Ce68     Ti101    10.0   1_565     S
Ce68     V346    10.0   1_565     S
Ce68     Er349    10.0   1_565     S
Ce68     V364    10.0   1_655     S
Ce68     Er368    10.0   1_655     S
Ce69     Ti345    10.0   .     S
Ce69     Ti312    10.0   .     S
Ce69     V210    10.0   .     S
Ce69     Er212    10.0   .     S
Ce69     V352    10.0   .     S
Ce69     Er354    10.0   .     S
Ce70     Ti114    10.0   1_556     S
Ce70     Ti317    10.0   .     S
Ce70     V136    10.0   1_556     S
Ce70     Er141    10.0   1_556     S
Ce70     V206    10.0   .     S
Ce70     Er211    10.0   .     S
Ce71     Ti378    10.0   .     S
Ce71     Ti100    10.0   1_565     S
Ce71     V322    10.0   1_565     S
Ce71     Er330    10.0   1_565     S
Ce71     V365    10.0   .     S
Ce71     Er368    10.0   .     S
Ce72     Ti105    10.0   .     S
Ce72     Ti202    10.0   .     S
Ce72     V189    10.0   .     S
Ce72     Er200    10.0   .     S
Ce72     V225    10.0   .     S
Ce72     Er230    10.0   .     S
Ce73     Ti156    10.0   .     S
Ce73     Ti232    10.0   .     S
Ce73     V192    10.0   .     S
Ce73     Er193    10.0   .     S
Ce73     V243    10.0   .     S
Ce73     Er236    10.0   .     S
Ce74     Ti266    10.0   .     S
Ce74     Ti315    10.0   .     S
Ce74     V347    10.0   .     S
Ce74     Er351    10.0   .     S
Ce74     V362    10.0   .     S
Ce74     Er363    10.0   .     S
Ce75     Ti112    10.0   1_556     S
Ce75     Ti102    10.0   .     S
Ce75     V142    10.0   1_556     S
Ce75     Er140    10.0   1_556     S
Ce75     V161    10.0   .     S
Ce75     Er158    10.0   .     S
Ce76     Ti114    10.0   1_565     S
Ce76     Ti316    10.0   .     S
Ce76     V126    10.0   .     S
Ce76     Er130    10.0   .     S
Ce76     V227    10.0   1_565     S
Ce76     Er231    10.0   1_565     S
Ce77     Ti218    10.0   1_565     S
Ce77     Ti378    10.0   .     S
Ce77     V197    10.0   .     S
Ce77     Er198    10.0   .     S
Ce77     V245    10.0   1_565     S
Ce77     Er246    10.0   1_565     S
Ce78     Ti294    10.0   .     S
Ce78     Ti266    10.0   .     S
Ce78     V274    10.0   .     S
Ce78     Er278    10.0   .     S
Ce78     V303    10.0   .     S
Ce78     Er304    10.0   .     S
Ce79     Ti154    10.0   .     S
Ce79     Ti103    10.0   .     S
Ce79     V331    10.0   .     S
Ce79     Er332    10.0   .     S
Ce79     V359    10.0   .     S
Ce79     Er363    10.0   .     S
Ce80     Ti251    10.0   .     S
Ce80     Ti154    10.0   .     S
Ce80     V174    10.0   .     S
Ce80     Er180    10.0   .     S
Ce80     V208    10.0   .     S
Ce80     Er209    10.0   .     S
Ce81     Ti317    10.0   1_565     S
Ce81     Ti316    10.0   1_556     S
Ce81     V339    10.0   1_556     S
Ce81     Er340    10.0   1_556     S
Ce81     V355    10.0   1_565     S
Ce81     Er356    10.0   1_565     S
Ce82     Ti115    10.0   1_655     S
Ce82     Ti101    10.0   .     S
Ce82     V252    10.0   .     S
Ce82     Er262    10.0   .     S
Ce82     V284    10.0   1_655     S
Ce82     Er291    10.0   1_655     S
Ce83     Ti112    10.0   1_655     S
Ce83     Ti380    10.0   .     S
Ce83     V281    10.0   1_655     S
Ce83     Er292    10.0   1_655     S
Ce83     V297    10.0   .     S
Ce83     Er298    10.0   .     S
Ce84     Ti377    10.0   .     S
Ce84     Ti96    10.0   1_556     S
Ce84     V326    10.0   1_556     S
Ce84     Er327    10.0   1_556     S
Ce84     V352    10.0   .     S
Ce84     Er356    10.0   .     S
Ce85     Ti104    10.0   .     S
Ce85     Ti156    10.0   .     S
Ce85     V159    10.0   .     S
Ce85     Er168    10.0   .     S
Ce85     V178    10.0   .     S
Ce85     Er180    10.0   .     S
Ce86     Ti232    10.0   .     S
Ce86     Ti104    10.0   .     S
Ce86     V341    10.0   .     S
Ce86     Er332    10.0   .     S
Ce86     V350    10.0   .     S
Ce86     Er351    10.0   .     S
Ce87     Ti315    10.0   .     S
Ce87     Ti294    10.0   .     S
Ce87     V128    10.0   .     S
Ce87     Er124    10.0   .     S
Ce87     V235    10.0   .     S
Ce87     Er236    10.0   .     S
Ce88     Ti376    10.0   .     S
Ce88     Ti105    10.0   1_655     S
Ce88     V319    10.0   1_655     S
Ce88     Er325    10.0   1_655     S
Ce88     V334    10.0   .     S
Ce88     Er335    10.0   .     S
Ce89     Ti313    10.0   .     S
Ce89     Ti107    10.0   .     S
Ce89     V143    10.0   .     S
Ce89     Er145    10.0   .     S
Ce89     V165    10.0   .     S
Ce89     Er166    10.0   .     S
Ce90     Ti115    10.0   1_565     S
Ce90     Ti318    10.0   .     S
Ce90     V190    10.0   .     S
Ce90     Er198    10.0   .     S
Ce90     V220    10.0   1_565     S
Ce90     Er221    10.0   1_565     S
Ce91     Ti182    10.0   .     S
Ce91     Ti106    10.0   .     S
Ce91     V125    10.0   .     S
Ce91     Er122    10.0   .     S
Ce91     V228    10.0   .     S
Ce91     Er230    10.0   .     S
Ce92     Ti234    10.0   .     S
Ce92     Ti98    10.0   .     S
Ce92     V254    10.0   .     S
Ce92     Er258    10.0   .     S
Ce92     V285    10.0   .     S
Ce92     Er286    10.0   .     S
Ce93     Ti279    10.0   .     S
Ce93     Ti149    10.0   .     S
Ce93     V208    10.0   .     S
Ce93     Er212    10.0   .     S
Ce93     V259    10.0   .     S
Ce93     Er261    10.0   .     S
Ce94     Ti116    10.0   .     S
Ce94     Ti249    10.0   .     S
Ce94     V222    10.0   .     S
Ce94     Er224    10.0   .     S
Ce94     V288    10.0   .     S
Ce94     Er290    10.0   .     S
Ce95     Ti379    10.0   .     S
Ce95     Ti97    10.0   .     S
Ce95     V139    10.0   .     S
Ce95     Er138    10.0   .     S
Ce95     V289    10.0   .     S
Ce95     Er290    10.0   .     S
Ti96     Ce84    10.0   1_554     S
Ti96     Er327    9.999   .     S
Ti96     Er286    9.999   .     S
Ti96     V282    10.0   .     S
Ti96     V326    10.0   .     S
Ti97     Er271    9.999   .     S
Ti97     V270    10.0   .     S
Ti97     V289    10.0   .     S
Ti97     Er290    9.999   .     S
Ti98     Ce50    10.0   1_545     S
Ti98     Er286    9.999   .     S
Ti98     Er327    9.999   .     S
Ti98     V285    10.0   .     S
Ti98     V320    10.0   .     S
Ti99     Er277    9.999   .     S
Ti99     Er200    9.999   .     S
Ti99     V194    10.0   .     S
Ti99     V270    10.0   .     S
Ti100     Ce71    10.0   1_545     S
Ti100     Er330    9.999   .     S
Ti100     Er145    9.999   .     S
Ti100     V134    10.0   .     S
Ti100     V322    10.0   .     S
Ti101     Ce68    10.0   1_545     S
Ti101     Er349    9.999   .     S
Ti101     V252    10.0   .     S
Ti101     Er262    9.999   .     S
Ti101     V346    10.0   .     S
Ti102     Ce66    10.0   1_455     S
Ti102     Er370    9.999   .     S
Ti102     V161    10.0   .     S
Ti102     Er158    9.999   .     S
Ti102     V360    10.0   .     S
Ti103     Er278    9.999   .     S
Ti103     Er363    9.999   .     S
Ti103     V268    10.0   .     S
Ti103     V359    10.0   .     S
Ti104     Er180    9.999   .     S
Ti104     Er332    9.999   .     S
Ti104     V178    10.0   .     S
Ti104     V341    10.0   .     S
Ti105     Ce88    10.0   1_455     S
Ti105     Er325    9.999   .     S
Ti105     V225    10.0   .     S
Ti105     Er230    9.999   .     S
Ti105     V319    10.0   .     S
Ti106     Ce48    10.0   1_554     S
Ti106     Er230    9.999   .     S
Ti106     Er325    9.999   .     S
Ti106     V228    10.0   .     S
Ti106     V323    10.0   .     S
Ti107     Ce41    10.0   1_455     S
Ti107     Er145    9.999   .     S
Ti107     Er330    9.999   .     S
Ti107     V143    10.0   .     S
Ti107     V328    10.0   .     S
Ti108     Er123    9.999   .     S
Ti108     V121    10.0   .     S
Ti108     V194    10.0   .     S
Ti108     Er196    9.999   .     S
Ti109     Er257    9.999   .     S
Ti109     Er306    9.999   .     S
Ti109     V255    10.0   .     S
Ti109     V302    10.0   .     S
Ti110     Er369    9.999   .     S
Ti110     Er348    9.999   .     S
Ti110     V347    10.0   .     S
Ti110     V362    10.0   .     S
Ti111     Er342    9.999   .     S
Ti111     Er357    9.999   .     S
Ti111     V341    10.0   .     S
Ti111     V350    10.0   .     S
Ti112     Ce75    10.0   1_554     S
Ti112     Ce83    10.0   1_455     S
Ti112     Er140    9.999   .     S
Ti112     Er292    9.999   .     S
Ti112     V142    10.0   .     S
Ti112     V281    10.0   .     S
Ti113     Er338    9.999   .     S
Ti113     Er361    9.999   .     S
Ti113     V331    10.0   .     S
Ti113     V359    10.0   .     S
Ti114     Ce70    10.0   1_554     S
Ti114     Ce76    10.0   1_545     S
Ti114     Er231    9.999   .     S
Ti114     Er141    9.999   .     S
Ti114     V136    10.0   .     S
Ti114     V227    10.0   .     S
Ti115     Ce82    10.0   1_455     S
Ti115     Ce90    10.0   1_545     S
Ti115     Er291    9.999   .     S
Ti115     Er221    9.999   .     S
Ti115     V220    10.0   .     S
Ti115     V284    10.0   .     S
Ti116     Er290    9.999   .     S
Ti116     V272    10.0   .     S
Ti116     Er271    9.999   .     S
Ti116     V288    10.0   .     S
Ti117     Er122    9.999   .     S
Ti117     V121    10.0   .     S
Ti117     V169    10.0   .     S
Ti117     Er177    9.999   .     S
Ti118     Er130    9.999   .     S
Ti118     Er340    9.999   .     S
Ti118     V129    10.0   .     S
Ti118     V333    10.0   .     S
Ti119     Ce39    10.0   1_565     S
Ti119     Er242    9.999   .     S
Ti119     V129    10.0   .     S
Ti119     Er131    9.999   .     S
Ti119     V237    10.0   1_565     S
V120     Er124    10.0   .     S
V120     Ti295    10.0   .     S
V120     Er123    10.0   .     S
V120     Ti382    10.0   .     S
V121     Er122    10.0   .     S
V121     Er123    10.0   .     S
Er122     V125    10.0   .     S
Er122     Ti182    9.999   .     S
Er123     Ti382    9.999   .     S
Er124     V128    10.0   .     S
Er124     Ti295    9.999   .     S
Er124     Ti294    9.999   .     S
V125     Ti182    10.0   .     S
V125     Er127    10.0   .     S
V125     Ti311    10.0   .     S
V126     Er130    10.0   .     S
V126     Ti316    10.0   .     S
V126     Er127    10.0   .     S
V126     Ti132    10.0   .     S
Er127     Ti132    9.999   .     S
Er127     Ti311    9.999   .     S
V128     Ti294    10.0   .     S
V128     Er131    10.0   .     S
V128     Ce384    10.0   .     S
V128     Ti248    10.0   .     S
V129     Er130    10.0   .     S
V129     Er131    10.0   .     S
Er130     Ti316    9.999   .     S
Er131     Ce384    10.0   .     S
Er131     Ti248    9.999   .     S
Ti132     Ce2    10.0   1_565     S
Ti132     V227    10.0   1_565     S
Ti132     Er229    9.999   .     S
Ti133     Er141    9.999   .     S
Ti133     Er231    9.999   .     S
Ti133     V137    10.0   .     S
Ti133     V223    10.0   .     S
V134     Er145    10.0   .     S
V134     Er135    10.0   .     S
V134     Ti314    10.0   .     S
Er135     V136    10.0   1_556     S
Er135     Ce2    10.0   1_556     S
Er135     Ti314    9.999   .     S
Er135     Ti217    9.999   .     S
V136     Er141    10.0   .     S
V136     Ce70    10.0   1_554     S
V136     Er135    10.0   1_554     S
V136     Ti217    10.0   1_554     S
V137     Er141    10.0   .     S
V137     Er138    10.0   .     S
V137     Ti181    10.0   .     S
Er138     V139    10.0   .     S
Er138     Ti181    9.999   .     S
Er138     Ti379    9.999   .     S
V139     Er140    10.0   .     S
V139     Ti186    10.0   .     S
V139     Ti379    10.0   .     S
Er140     V142    10.0   .     S
Er140     Ce75    10.0   1_554     S
Er140     Ti186    9.999   .     S
Er141     Ce70    10.0   1_554     S
V142     Ce75    10.0   1_554     S
V142     Er144    10.0   1_554     S
V142     Ti183    10.0   1_554     S
V143     Er144    10.0   .     S
V143     Ti184    10.0   .     S
V143     Er145    10.0   .     S
Er144     V142    10.0   1_556     S
Er144     Ce1    10.0   1_556     S
Er144     Ti183    9.999   .     S
Er144     Ti184    9.999   .     S
Ti146     Ce61    10.0   1_554     S
Ti146     Er173    9.999   .     S
Ti146     V172    10.0   .     S
Ti146     V296    10.0   .     S
Ti146     Er307    9.999   .     S
Ti147     Er263    9.999   .     S
Ti147     Er209    9.999   .     S
Ti147     V213    10.0   .     S
Ti147     V256    10.0   .     S
Ti148     Er291    9.999   .     S
Ti148     Er221    9.999   .     S
Ti148     V222    10.0   .     S
Ti148     V288    10.0   .     S
Ti149     Er175    9.999   .     S
Ti149     V174    10.0   .     S
Ti149     V208    10.0   .     S
Ti149     Er212    9.999   .     S
Ti150     Er167    9.999   .     S
Ti150     V164    10.0   .     S
Ti150     V215    10.0   .     S
Ti150     Er214    9.999   .     S
Ti151     Er168    9.999   .     S
Ti151     Er193    9.999   .     S
Ti151     V163    10.0   .     S
Ti151     V195    10.0   .     S
Ti152     Er158    9.999   .     S
Ti152     Er370    9.999   .     S
Ti152     V157    10.0   .     S
Ti152     V366    10.0   .     S
Ti153     Er160    9.999   .     S
Ti153     V159    10.0   .     S
Ti153     V178    10.0   .     S
Ti153     Er179    9.999   .     S
Ti154     Er332    9.999   .     S
Ti154     V174    10.0   .     S
Ti154     Er180    9.999   .     S
Ti154     V331    10.0   .     S
Ti155     Ce17    10.0   1_556     S
Ti155     Er160    9.999   .     S
Ti155     Er179    9.999   .     S
Ti155     V157    10.0   .     S
Ti155     V176    10.0   1_556     S
Ti156     Er193    9.999   .     S
Ti156     V159    10.0   .     S
Ti156     Er168    9.999   .     S
Ti156     V192    10.0   .     S
V157     Er158    10.0   .     S
V157     Er160    10.0   .     S
Er158     V161    10.0   .     S
V159     Er168    10.0   .     S
V159     Er160    10.0   .     S
V161     Er162    10.0   .     S
V161     Ti183    10.0   .     S
Er162     V165    10.0   .     S
Er162     Ti183    9.999   .     S
Er162     Ti184    9.999   .     S
V163     Er168    10.0   .     S
V163     Er167    10.0   .     S
V163     Ti383    10.0   .     S
V164     Er166    10.0   .     S
V164     Ti185    10.0   .     S
V164     Er167    10.0   .     S
V165     Er166    10.0   .     S
V165     Ti313    10.0   .     S
V165     Ti184    10.0   .     S
Er166     Ti313    9.999   .     S
Er166     Ti185    9.999   .     S
Er167     Ti383    9.999   .     S
V169     Er177    10.0   .     S
V169     Er171    10.0   .     S
V169     Ti379    10.0   .     S
V170     Er173    10.0   .     S
V170     Ti203    10.0   .     S
V170     Er171    10.0   .     S
V170     Ti181    10.0   .     S
Er171     Ti379    9.999   .     S
Er171     Ti181    9.999   .     S
V172     Er173    10.0   .     S
V172     Ce61    10.0   1_554     S
V172     Er175    10.0   1_554     S
V172     Ti312    10.0   1_554     S
Er173     Ce61    10.0   1_554     S
Er173     Ti203    9.999   .     S
V174     Er180    10.0   .     S
V174     Er175    10.0   .     S
Er175     V172    10.0   1_556     S
Er175     Ce12    10.0   1_556     S
Er175     Ti312    9.999   .     S
V176     Er177    10.0   .     S
V176     Ce53    10.0   1_554     S
V176     Ti182    10.0   .     S
V176     Er179    10.0   1_554     S
V176     Ti155    10.0   1_554     S
Er177     Ce53    10.0   1_554     S
Er177     Ti182    9.999   .     S
V178     Er179    10.0   .     S
V178     Er180    10.0   .     S
Er179     V176    10.0   1_556     S
Er179     Ce17    10.0   1_556     S
Ti182     Ce53    10.0   1_554     S
Ti183     Ce1    10.0   1_556     S
Ti183     V142    10.0   1_556     S
Ti185     Er273    9.999   .     S
Ti185     V272    10.0   .     S
Ti186     Er292    9.999   .     S
Ti186     V289    10.0   .     S
Ti187     Ce3    10.0   1_565     S
Ti187     Er191    9.999   .     S
Ti187     V190    10.0   .     S
Ti187     V220    10.0   1_565     S
Ti187     Er226    9.999   .     S
Ti188     Er191    9.999   .     S
Ti188     V189    10.0   .     S
Ti188     V225    10.0   .     S
Ti188     Er226    9.999   .     S
V189     Er200    10.0   .     S
V189     Ti202    10.0   .     S
V189     Er191    10.0   .     S
V190     Er198    10.0   .     S
V190     Ti318    10.0   .     S
V190     Er191    10.0   .     S
V192     Er193    10.0   .     S
V192     Er199    10.0   .     S
V192     Ti247    10.0   .     S
Er193     V195    10.0   .     S
V194     Er200    10.0   .     S
V194     Er196    10.0   .     S
V195     Er196    10.0   .     S
V195     Ti382    10.0   .     S
Er196     Ti382    9.999   .     S
V197     Er198    10.0   .     S
V197     Ti378    10.0   .     S
V197     Er199    10.0   .     S
V197     Ti201    10.0   .     S
Er198     Ti378    9.999   .     S
Er198     Ti318    9.999   .     S
Er199     Ti201    9.999   .     S
Er199     Ti247    9.999   .     S
Er200     Ti202    9.999   .     S
Ti201     Ce21    10.0   1_565     S
Ti201     V245    10.0   1_565     S
Ti201     Er244    9.999   .     S
Ti202     Ce67    10.0   1_455     S
Ti202     Er277    9.999   .     S
Ti202     V276    10.0   .     S
Ti203     Er307    9.999   .     S
Ti203     V302    10.0   .     S
Ti204     Er216    9.999   .     S
Ti204     Er246    9.999   .     S
Ti204     V215    10.0   .     S
Ti204     V239    10.0   .     S
V205     Er216    10.0   .     S
V205     Ti218    10.0   .     S
V205     Er207    10.0   .     S
V205     Ti314    10.0   .     S
V206     Er211    10.0   .     S
V206     Ti317    10.0   .     S
V206     Er207    10.0   .     S
V206     Ti217    10.0   .     S
Er207     Ti217    9.999   .     S
Er207     Ti314    9.999   .     S
V208     Er209    10.0   .     S
V208     Ti251    10.0   .     S
V208     Er212    10.0   .     S
Er209     V213    10.0   .     S
Er209     Ti251    9.999   .     S
V210     Er211    10.0   .     S
V210     Ti377    10.0   .     S
V210     Er212    10.0   .     S
V210     Ti312    10.0   .     S
Er211     Ti377    9.999   .     S
Er211     Ti317    9.999   .     S
Er212     Ti312    9.999   .     S
V213     Er214    10.0   .     S
V213     Ti383    10.0   .     S
Er214     V215    10.0   .     S
Er214     Ti383    9.999   .     S
V215     Er216    10.0   .     S
Er216     Ti218    9.999   .     S
Ti217     Ce2    10.0   1_556     S
Ti217     V136    10.0   1_556     S
Ti218     Ce77    10.0   1_545     S
Ti218     Er246    9.999   .     S
Ti218     V245    10.0   .     S
Ti219     Er224    9.999   .     S
Ti219     V223    10.0   .     S
Ti219     V238    10.0   .     S
Ti219     Er240    9.999   .     S
V220     Er221    10.0   .     S
V220     Ce90    10.0   1_545     S
V220     Er226    10.0   1_545     S
V220     Ti187    10.0   1_545     S
Er221     Ce90    10.0   1_545     S
Er221     V222    10.0   .     S
V222     Er224    10.0   .     S
V222     Ti249    10.0   .     S
V223     Er231    10.0   .     S
V223     Er224    10.0   .     S
Er224     Ti249    9.999   .     S
V225     Er230    10.0   .     S
V225     Er226    10.0   .     S
Er226     V220    10.0   1_565     S
Er226     Ce3    10.0   1_565     S
V227     Er231    10.0   .     S
V227     Ce76    10.0   1_545     S
V227     Er229    10.0   1_545     S
V227     Ti132    10.0   1_545     S
V228     Er229    10.0   .     S
V228     Ti311    10.0   .     S
V228     Er230    10.0   .     S
Er229     V227    10.0   1_565     S
Er229     Ce2    10.0   1_565     S
Er229     Ti311    9.999   .     S
Er231     Ce76    10.0   1_545     S
Ti232     Er351    9.999   .     S
Ti232     V243    10.0   .     S
Ti232     Er236    9.999   .     S
Ti232     V350    10.0   .     S
Ti233     Er258    9.999   .     S
Ti233     V238    10.0   .     S
Ti233     Er241    9.999   .     S
Ti233     V255    10.0   .     S
Ti234     Ce37    10.0   1_545     S
Ti234     Er258    9.999   .     S
Ti234     V237    10.0   .     S
Ti234     Er241    9.999   .     S
Ti234     V254    10.0   .     S
V235     Er242    10.0   .     S
V235     Ti248    10.0   .     S
V235     Er236    10.0   .     S
V235     Ti315    10.0   .     S
Er236     V243    10.0   .     S
Er236     Ti315    9.999   .     S
V237     Er241    10.0   .     S
V237     Ce37    10.0   1_545     S
V237     Er242    10.0   1_545     S
V237     Ti119    10.0   1_545     S
V238     Er241    10.0   .     S
V238     Er240    10.0   .     S
V239     Er246    10.0   .     S
V239     Er240    10.0   .     S
V239     Ti249    10.0   .     S
Er240     Ti249    9.999   .     S
Er241     Ce37    10.0   1_545     S
Er242     V237    10.0   1_565     S
Er242     Ce39    10.0   1_565     S
Er242     Ti248    9.999   .     S
V243     Er244    10.0   .     S
V243     Ti247    10.0   .     S
Er244     V245    10.0   1_565     S
Er244     Ce21    10.0   1_565     S
Er244     Ti247    9.999   .     S
V245     Er246    10.0   .     S
V245     Ce77    10.0   1_545     S
V245     Er244    10.0   1_545     S
V245     Ti201    10.0   1_545     S
Er246     Ce77    10.0   1_545     S
Ti248     Ce384    10.0   .     S
Ti250     Er262    9.999   .     S
Ti250     V260    10.0   .     S
Ti250     V353    10.0   .     S
Ti250     Er349    9.999   .     S
Ti251     V259    10.0   .     S
Ti251     Er263    9.999   .     S
V252     Er262    10.0   .     S
V252     Er253    10.0   .     S
V252     Ti265    10.0   .     S
Er253     V254    10.0   .     S
Er253     Ti265    9.999   .     S
Er253     Ti310    9.999   .     S
V254     Er258    10.0   .     S
V254     Ti310    10.0   .     S
V255     Er258    10.0   .     S
V255     Er257    10.0   .     S
V256     Er263    10.0   .     S
V256     Er257    10.0   .     S
V256     Ti381    10.0   .     S
Er257     Ti381    9.999   .     S
V259     Er263    10.0   .     S
V259     Er261    10.0   .     S
V259     Ti279    10.0   .     S
V260     Er262    10.0   .     S
V260     Er261    10.0   .     S
V260     Ti264    10.0   .     S
Er261     Ti264    9.999   .     S
Er261     Ti279    9.999   .     S
Ti264     Ce18    10.0   1_655     S
Ti264     V267    10.0   1_655     S
Ti264     Er269    9.999   .     S
Ti265     Ce3    10.0   1_655     S
Ti265     V284    10.0   1_655     S
Ti265     Er287    9.999   .     S
Ti266     Er363    9.999   .     S
Ti266     V274    10.0   .     S
Ti266     Er278    9.999   .     S
Ti266     V362    10.0   .     S
V267     Er273    10.0   .     S
V267     Ce59    10.0   1_455     S
V267     Ti313    10.0   .     S
V267     Er269    10.0   1_455     S
V267     Ti264    10.0   1_455     S
V268     Er278    10.0   .     S
V268     Er269    10.0   .     S
V268     Ti279    10.0   .     S
Er269     V267    10.0   1_655     S
Er269     Ce18    10.0   1_655     S
Er269     Ti279    9.999   .     S
V270     Er277    10.0   .     S
V270     Er271    10.0   .     S
Er271     V272    10.0   .     S
V272     Er273    10.0   .     S
Er273     Ce59    10.0   1_455     S
Er273     Ti313    9.999   .     S
V274     Er275    10.0   .     S
V274     Ti280    10.0   .     S
V274     Er278    10.0   .     S
Er275     V276    10.0   1_655     S
Er275     Ce36    10.0   1_655     S
Er275     Ti308    9.999   .     S
Er275     Ti280    9.999   .     S
V276     Er277    10.0   .     S
V276     Ce67    10.0   1_455     S
V276     Er275    10.0   1_455     S
V276     Ti308    10.0   1_455     S
Er277     Ce67    10.0   1_455     S
Ti280     V303    10.0   .     S
Ti280     Er301    9.999   .     S
Ti280     Ce384    10.0   .     S
V281     Er292    10.0   .     S
V281     Ce83    10.0   1_455     S
V281     Er283    10.0   1_455     S
V281     Ti309    10.0   1_455     S
V282     Er286    10.0   .     S
V282     Er283    10.0   .     S
V282     Ti293    10.0   .     S
Er283     V281    10.0   1_655     S
Er283     Ce1    10.0   1_655     S
Er283     Ti309    9.999   .     S
Er283     Ti293    9.999   .     S
V284     Er291    10.0   .     S
V284     Ce82    10.0   1_455     S
V284     Er287    10.0   1_455     S
V284     Ti265    10.0   1_455     S
V285     Er287    10.0   .     S
V285     Ti310    10.0   .     S
V285     Er286    10.0   .     S
Er287     V284    10.0   1_655     S
Er287     Ce3    10.0   1_655     S
Er287     Ti310    9.999   .     S
V288     Er291    10.0   .     S
V288     Er290    10.0   .     S
V289     Er292    10.0   .     S
V289     Er290    10.0   .     S
Er291     Ce82    10.0   1_455     S
Er292     Ce83    10.0   1_455     S
Ti293     Er299    9.999   .     S
Ti293     V296    10.0   .     S
Ti294     Er304    9.999   .     S
Ti294     V303    10.0   .     S
Ti295     Er304    9.999   .     S
Ti295     V305    10.0   .     S
V296     Er307    10.0   .     S
V296     Er299    10.0   .     S
V297     Er298    10.0   .     S
V297     Ti380    10.0   .     S
V297     Er299    10.0   .     S
V297     Ti309    10.0   .     S
Er298     V300    10.0   .     S
Er298     Ti380    9.999   .     S
Er298     Ti376    9.999   .     S
Er299     Ti309    9.999   .     S
V300     Ti376    10.0   .     S
V300     Er301    10.0   .     S
V300     Ti308    10.0   .     S
Er301     V303    10.0   .     S
Er301     Ce384    10.0   .     S
Er301     Ti308    9.999   .     S
V302     Er306    10.0   .     S
V302     Er307    10.0   .     S
V303     Er304    10.0   .     S
V303     Ce384    10.0   .     S
Er304     V305    10.0   .     S
V305     Er306    10.0   .     S
V305     Ti381    10.0   .     S
Er306     Ti381    9.999   .     S
Ti308     Ce36    10.0   1_655     S
Ti308     V276    10.0   1_655     S
Ti309     Ce1    10.0   1_655     S
Ti309     V281    10.0   1_655     S
Ti312     Ce12    10.0   1_556     S
Ti312     V172    10.0   1_556     S
Ti313     Ce59    10.0   1_455     S
Ti315     V347    10.0   .     S
Ti315     Er351    9.999   .     S
Ti316     Ce81    10.0   1_554     S
Ti316     Er340    9.999   .     S
Ti316     V339    10.0   .     S
Ti317     Ce81    10.0   1_545     S
Ti317     Er356    9.999   .     S
Ti317     V355    10.0   .     S
Ti318     Ce68    10.0   1_455     S
Ti318     Er368    9.999   .     S
Ti318     V364    10.0   .     S
V319     Er325    10.0   .     S
V319     Ce88    10.0   1_455     S
V319     Er321    10.0   1_455     S
V319     Ti375    10.0   1_455     S
V320     Er327    10.0   .     S
V320     Ce50    10.0   1_545     S
V320     Er321    10.0   1_545     S
V320     Ti343    10.0   1_545     S
Er321     V319    10.0   1_655     S
Er321     Ce14    10.0   1_655     S
Er321     V320    10.0   1_565     S
Er321     Ce28    10.0   1_565     S
Er321     Ti343    9.999   .     S
Er321     Ti375    9.999   .     S
V322     Er330    10.0   .     S
V322     Ce71    10.0   1_545     S
V322     Er324    10.0   1_545     S
V322     Ti372    10.0   1_545     S
V323     Er325    10.0   .     S
V323     Ce48    10.0   1_554     S
V323     Er324    10.0   1_554     S
V323     Ti371    10.0   1_554     S
Er324     V322    10.0   1_565     S
Er324     Ce19    10.0   1_565     S
Er324     V323    10.0   1_556     S
Er324     Ce20    10.0   1_556     S
Er324     Ti371    9.999   .     S
Er324     Ti372    9.999   .     S
Er325     Ce88    10.0   1_455     S
Er325     Ce48    10.0   1_554     S
V326     Er327    10.0   .     S
V326     Ce84    10.0   1_554     S
V326     Er329    10.0   1_554     S
V326     Ti345    10.0   1_554     S
Er327     Ce50    10.0   1_545     S
Er327     Ce84    10.0   1_554     S
V328     Er330    10.0   .     S
V328     Ce41    10.0   1_455     S
V328     Er329    10.0   1_455     S
V328     Ti358    10.0   1_455     S
Er329     V326    10.0   1_556     S
Er329     Ce11    10.0   1_556     S
Er329     V328    10.0   1_655     S
Er329     Ce22    10.0   1_655     S
Er329     Ti358    9.999   .     S
Er329     Ti345    9.999   .     S
Er330     Ce71    10.0   1_545     S
Er330     Ce41    10.0   1_455     S
V331     Er332    10.0   .     S
V331     Er338    10.0   .     S
Er332     V341    10.0   .     S
V333     Er340    10.0   .     S
V333     Er336    10.0   .     S
V333     Ti343    10.0   .     S
V334     Er335    10.0   .     S
V334     Ti376    10.0   .     S
V334     Er336    10.0   .     S
V334     Ti375    10.0   .     S
Er335     V337    10.0   .     S
Er335     Ce66    10.0   1_554     S
Er335     Ti380    9.999   .     S
Er335     Ti376    9.999   .     S
Er336     Ti375    9.999   .     S
Er336     Ti343    9.999   .     S
V337     Ce66    10.0   1_554     S
V337     Ti380    10.0   .     S
V337     Er338    10.0   1_554     S
V337     Ti374    10.0   1_554     S
Er338     V337    10.0   1_556     S
Er338     Ce10    10.0   1_556     S
Er338     Ti374    9.999   .     S
V339     Er340    10.0   .     S
V339     Ce81    10.0   1_554     S
V339     Er342    10.0   1_554     S
V339     Ti344    10.0   1_554     S
Er340     Ce81    10.0   1_554     S
V341     Er342    10.0   .     S
Er342     V339    10.0   1_556     S
Er342     Ce9    10.0   1_556     S
Er342     Ti344    9.999   .     S
Ti343     Ce28    10.0   1_565     S
Ti343     V320    10.0   1_565     S
Ti344     Ce9    10.0   1_556     S
Ti344     Ce29    10.0   1_565     S
Ti344     V339    10.0   1_556     S
Ti344     V355    10.0   1_565     S
Ti344     Er357    9.999   .     S
Ti345     Ce11    10.0   1_556     S
Ti345     V326    10.0   1_556     S
Ti345     Er354    9.999   .     S
Ti345     V352    10.0   .     S
V346     Er349    10.0   .     S
V346     Ce68    10.0   1_545     S
V346     Er348    10.0   1_545     S
V346     Ti373    10.0   1_545     S
V347     Er351    10.0   .     S
V347     Er348    10.0   .     S
Er348     V346    10.0   1_565     S
Er348     Ce13    10.0   1_565     S
Er348     Ti373    9.999   .     S
Er349     Ce68    10.0   1_545     S
Er349     V353    10.0   .     S
V350     Er351    10.0   .     S
V350     Er357    10.0   .     S
V352     Er356    10.0   .     S
V352     Ti377    10.0   .     S
V352     Er354    10.0   .     S
V353     Er354    10.0   .     S
V353     Ti358    10.0   .     S
Er354     Ti358    9.999   .     S
V355     Er356    10.0   .     S
V355     Ce81    10.0   1_545     S
V355     Er357    10.0   1_545     S
V355     Ti344    10.0   1_545     S
Er356     Ce81    10.0   1_545     S
Er356     Ti377    9.999   .     S
Er357     V355    10.0   1_565     S
Er357     Ce29    10.0   1_565     S
Ti358     Ce22    10.0   1_655     S
Ti358     V328    10.0   1_655     S
V359     Er363    10.0   .     S
V359     Er361    10.0   .     S
V360     Er370    10.0   .     S
V360     Ce66    10.0   1_455     S
V360     Er361    10.0   1_455     S
V360     Ti374    10.0   1_455     S
Er361     V360    10.0   1_655     S
Er361     Ce31    10.0   1_655     S
Er361     Ti374    9.999   .     S
V362     Er363    10.0   .     S
V362     Er369    10.0   .     S
V364     Er368    10.0   .     S
V364     Ce68    10.0   1_455     S
V364     Er369    10.0   1_455     S
V364     Ti373    10.0   1_455     S
V365     Er368    10.0   .     S
V365     Ti378    10.0   .     S
V365     Er367    10.0   .     S
V365     Ti372    10.0   .     S
V366     Er370    10.0   .     S
V366     Er367    10.0   .     S
V366     Ti371    10.0   .     S
Er367     Ti372    9.999   .     S
Er367     Ti371    9.999   .     S
Er368     Ce68    10.0   1_455     S
Er368     Ti378    9.999   .     S
Er369     V364    10.0   1_655     S
Er369     Ce16    10.0   1_655     S
Er369     Ti373    9.999   .     S
Er370     Ce66    10.0   1_455     S
Ti371     Ce20    10.0   1_556     S
Ti371     V323    10.0   1_556     S
Ti372     Ce19    10.0   1_565     S
Ti372     V322    10.0   1_565     S
Ti373     Ce13    10.0   1_565     S
Ti373     Ce16    10.0   1_655     S
Ti373     V346    10.0   1_565     S
Ti373     V364    10.0   1_655     S
Ti374     Ce10    10.0   1_556     S
Ti374     Ce31    10.0   1_655     S
Ti374     V337    10.0   1_556     S
Ti374     V360    10.0   1_655     S
Ti375     Ce14    10.0   1_655     S
Ti375     V319    10.0   1_655     S
Ti380     Ce66    10.0   1_554     S
