data_fav
_audit_creation_date              2020-02-02
_audit_creation_method            'Pymatgen'
_symmetry_space_group_name_H-M    'P1'
_symmetry_Int_Tables_number       1
loop_
_symmetry_equiv_pos_as_xyz
  x,y,z
_cell_length_a                    212.8127
_cell_length_b                    212.8127
_cell_length_c                    212.8127
_cell_angle_alpha                 90.0
_cell_angle_beta                 90.0
_cell_angle_gamma                 90.0
loop_
_atom_site_label
_atom_site_type_symbol
_atom_site_fract_x
_atom_site_fract_y
_atom_site_fract_z
Na1     Na     0.2897   0.6653   0.4936
Mg2     Mg     0.3167   0.6926   0.4666
Na3     Na     0.2897   0.5847   0.7564
Mg4     Mg     0.3167   0.5574   0.7834
Na5     Na     0.7564   0.2897   0.5847
Mg6     Mg     0.7834   0.3167   0.5574
Na7     Na     0.2564   0.4603   0.6653
Mg8     Mg     0.2834   0.4333   0.6926
Na9     Na     0.5847   0.7564   0.2897
Mg10     Mg     0.5574   0.7834   0.3167
Na11     Na     0.7897   0.5847   0.2564
Mg12     Mg     0.8167   0.5574   0.2834
Na13     Na     0.2564   0.7897   0.5847
Mg14     Mg     0.2834   0.8167   0.5574
Na15     Na     0.4603   0.4936   0.0847
Mg16     Mg     0.4333   0.4666   0.0574
Na17     Na     0.9603   0.5847   0.4936
Mg18     Mg     0.9333   0.5574   0.4666
Na19     Na     0.5847   0.4936   0.9603
Mg20     Mg     0.5574   0.4666   0.9333
Na21     Na     0.4936   0.9603   0.5847
Mg22     Mg     0.4666   0.9333   0.5574
Na23     Na     0.7564   0.9603   0.6653
Mg24     Mg     0.7834   0.9333   0.6926
Na25     Na     0.5847   0.2564   0.7897
Mg26     Mg     0.5574   0.2834   0.8167
Na27     Na     0.4603   0.5847   0.9936
Mg28     Mg     0.4333   0.5574   0.9666
Na29     Na     0.9936   0.4603   0.5847
Mg30     Mg     0.9666   0.4333   0.5574
Na31     Na     0.5847   0.9936   0.4603
Mg32     Mg     0.5574   0.9666   0.4333
Na33     Na     0.4603   0.7564   0.1653
Mg34     Mg     0.4333   0.7834   0.1926
Na35     Na     0.1653   0.4603   0.7564
Mg36     Mg     0.1926   0.4333   0.7834
Na37     Na     0.9153   0.0397   0.0064
Mg38     Mg     0.9426   0.0667   0.0334
Na39     Na     0.0064   0.9153   0.0397
Mg40     Mg     0.0334   0.9426   0.0667
Na41     Na     0.0397   0.0064   0.9153
Mg42     Mg     0.0667   0.0334   0.9426
Na43     Na     0.7897   0.6653   0.9936
Mg44     Mg     0.8167   0.6926   0.9666
Na45     Na     0.5397   0.4153   0.0064
Mg46     Mg     0.5667   0.4426   0.0334
Na47     Na     0.4153   0.5397   0.0064
Mg48     Mg     0.4426   0.5667   0.0334
Na49     Na     0.0064   0.4153   0.5397
Mg50     Mg     0.0334   0.4426   0.5667
Na51     Na     0.4153   0.0064   0.5397
Mg52     Mg     0.4426   0.0334   0.5667
Na53     Na     0.9603   0.4936   0.5847
Mg54     Mg     0.9333   0.4666   0.5574
Na55     Na     0.4936   0.5847   0.9603
Mg56     Mg     0.4666   0.5574   0.9333
Na57     Na     0.5847   0.9603   0.4936
Mg58     Mg     0.5574   0.9333   0.4666
Na59     Na     0.9153   0.0064   0.0397
Mg60     Mg     0.9426   0.0334   0.0667
Na61     Na     0.0397   0.9153   0.0064
Mg62     Mg     0.0667   0.9426   0.0334
Na63     Na     0.0064   0.0397   0.9153
Mg64     Mg     0.0334   0.0667   0.9426
Na65     Na     0.2564   0.6653   0.4603
Mg66     Mg     0.2834   0.6926   0.4333
Na67     Na     0.9603   0.0847   0.9936
Mg68     Mg     0.9333   0.0574   0.9666
Na69     Na     0.9936   0.9603   0.0847
Mg70     Mg     0.9666   0.9333   0.0574
Na71     Na     0.0847   0.9603   0.9936
Mg72     Mg     0.0574   0.9333   0.9666
Na73     Na     0.9936   0.0847   0.9603
Mg74     Mg     0.9666   0.0574   0.9333
Na75     Na     0.2103   0.9153   0.2436
Mg76     Mg     0.1833   0.9426   0.2166
Na77     Na     0.7103   0.8347   0.0064
Mg78     Mg     0.6833   0.8074   0.0334
Na79     Na     0.8347   0.7103   0.0064
Mg80     Mg     0.8074   0.6833   0.0334
Na81     Na     0.7103   0.0064   0.8347
Mg82     Mg     0.6833   0.0334   0.8074
Na83     Na     0.8347   0.0064   0.7103
Mg84     Mg     0.8074   0.0334   0.6833
Na85     Na     0.0064   0.8347   0.7103
Mg86     Mg     0.0334   0.8074   0.6833
Na87     Na     0.0064   0.7103   0.8347
Mg88     Mg     0.0334   0.6833   0.8074
Na89     Na     0.6653   0.2564   0.4603
Mg90     Mg     0.6926   0.2834   0.4333
Na91     Na     0.9603   0.7564   0.6653
Mg92     Mg     0.9333   0.7834   0.6926
Na93     Na     0.2564   0.5847   0.7897
Mg94     Mg     0.2834   0.5574   0.8167
Na95     Na     0.9603   0.1653   0.2564
Mg96     Mg     0.9333   0.1926   0.2834
Na97     Na     0.5064   0.9153   0.5397
Mg98     Mg     0.5334   0.9426   0.5667
Na99     Na     0.5847   0.7897   0.2564
Mg100     Mg     0.5574   0.8167   0.2834
Na101     Na     0.2436   0.5397   0.8347
Mg102     Mg     0.2166   0.5667   0.8074
Na103     Na     0.7897   0.2564   0.5847
Mg104     Mg     0.8167   0.2834   0.5574
Na105     Na     0.5064   0.5397   0.9153
Mg106     Mg     0.5334   0.5667   0.9426
Na107     Na     0.2564   0.1653   0.9603
Mg108     Mg     0.2834   0.1926   0.9333
Na109     Na     0.4603   0.6653   0.2564
Mg110     Mg     0.4333   0.6926   0.2834
Na111     Na     0.9153   0.5397   0.5064
Mg112     Mg     0.9426   0.5667   0.5334
Na113     Na     0.5397   0.5064   0.9153
Mg114     Mg     0.5667   0.5334   0.9426
Na115     Na     0.1653   0.2564   0.9603
Mg116     Mg     0.1926   0.2834   0.9333
Na117     Na     0.5397   0.9153   0.5064
Mg118     Mg     0.5667   0.9426   0.5334
Na119     Na     0.0847   0.4603   0.4936
Mg120     Mg     0.0574   0.4333   0.4666
Na121     Na     0.4936   0.0847   0.4603
Mg122     Mg     0.4666   0.0574   0.4333
Na123     Na     0.2436   0.2103   0.9153
Mg124     Mg     0.2166   0.1833   0.9426
Na125     Na     0.9603   0.6653   0.7564
Mg126     Mg     0.9333   0.6926   0.7834
Na127     Na     0.6653   0.7897   0.9936
Mg128     Mg     0.6926   0.8167   0.9666
Na129     Na     0.6653   0.9936   0.7897
Mg130     Mg     0.6926   0.9666   0.8167
Na131     Na     0.6653   0.7564   0.9603
Mg132     Mg     0.6926   0.7834   0.9333
Na133     Na     0.7897   0.9936   0.6653
Mg134     Mg     0.8167   0.9666   0.6926
Na135     Na     0.9936   0.7897   0.6653
Mg136     Mg     0.9666   0.8167   0.6926
Na137     Na     0.6653   0.9603   0.7564
Mg138     Mg     0.6926   0.9333   0.7834
Na139     Na     0.7564   0.6653   0.9603
Mg140     Mg     0.7834   0.6926   0.9333
Na141     Na     0.9936   0.6653   0.7897
Mg142     Mg     0.9666   0.6926   0.8167
Na143     Na     0.2103   0.8347   0.5064
Mg144     Mg     0.1833   0.8074   0.5334
Na145     Na     0.8347   0.2103   0.5064
Mg146     Mg     0.8074   0.1833   0.5334
Na147     Na     0.2436   0.8347   0.5397
Mg148     Mg     0.2166   0.8074   0.5667
Na149     Na     0.6653   0.2897   0.4936
Mg150     Mg     0.6926   0.3167   0.4666
Na151     Na     0.0397   0.5064   0.4153
Mg152     Mg     0.0667   0.5334   0.4426
Na153     Na     0.2103   0.5064   0.8347
Mg154     Mg     0.1833   0.5334   0.8074
Na155     Na     0.5064   0.2103   0.8347
Mg156     Mg     0.5334   0.1833   0.8074
Na157     Na     0.8347   0.5397   0.2436
Mg158     Mg     0.8074   0.5667   0.2166
Na159     Na     0.5064   0.8347   0.2103
Mg160     Mg     0.5334   0.8074   0.1833
Na161     Na     0.5397   0.2436   0.8347
Mg162     Mg     0.5667   0.2166   0.8074
Na163     Na     0.8347   0.5064   0.2103
Mg164     Mg     0.8074   0.5334   0.1833
Na165     Na     0.5397   0.8347   0.2436
Mg166     Mg     0.5667   0.8074   0.2166
Na167     Na     0.8347   0.2436   0.5397
Mg168     Mg     0.8074   0.2166   0.5667
Na169     Na     0.7436   0.8347   0.0397
Mg170     Mg     0.7166   0.8074   0.0667
Na171     Na     0.4936   0.2897   0.6653
Mg172     Mg     0.4666   0.3167   0.6926
Na173     Na     0.2897   0.4936   0.6653
Mg174     Mg     0.3167   0.4666   0.6926
Na175     Na     0.2897   0.7564   0.5847
Mg176     Mg     0.3167   0.7834   0.5574
Na177     Na     0.6653   0.4603   0.2564
Mg178     Mg     0.6926   0.4333   0.2834
Na179     Na     0.4936   0.6653   0.2897
Mg180     Mg     0.4666   0.6926   0.3167
Na181     Na     0.4603   0.2564   0.6653
Mg182     Mg     0.4333   0.2834   0.6926
Na183     Na     0.8347   0.0397   0.7436
Mg184     Mg     0.8074   0.0667   0.7166
Na185     Na     0.6653   0.4936   0.2897
Mg186     Mg     0.6926   0.4666   0.3167
Na187     Na     0.1653   0.9603   0.2564
Mg188     Mg     0.1926   0.9333   0.2834
Na189     Na     0.4153   0.7436   0.2103
Mg190     Mg     0.4426   0.7166   0.1833
Na191     Na     0.0397   0.7436   0.8347
Mg192     Mg     0.0667   0.7166   0.8074
Na193     Na     0.2103   0.7436   0.4153
Mg194     Mg     0.1833   0.7166   0.4426
Na195     Na     0.7436   0.2103   0.4153
Mg196     Mg     0.7166   0.1833   0.4426
Na197     Na     0.9603   0.2564   0.1653
Mg198     Mg     0.9333   0.2834   0.1926
Na199     Na     0.2436   0.0397   0.3347
Mg200     Mg     0.2166   0.0667   0.3074
Na201     Na     0.9603   0.9936   0.0847
Mg202     Mg     0.9333   0.9666   0.0574
Na203     Na     0.2103   0.2436   0.9153
Mg204     Mg     0.1833   0.2166   0.9426
Na205     Na     0.9153   0.5064   0.5397
Mg206     Mg     0.9426   0.5334   0.5667
Na207     Na     0.9153   0.2103   0.2436
Mg208     Mg     0.9426   0.1833   0.2166
Na209     Na     0.2436   0.9153   0.2103
Mg210     Mg     0.2166   0.9426   0.1833
Na211     Na     0.9153   0.2436   0.2103
Mg212     Mg     0.9426   0.2166   0.1833
Na213     Na     0.7564   0.4603   0.1653
Mg214     Mg     0.7834   0.4333   0.1926
Na215     Na     0.0847   0.2897   0.2564
Mg216     Mg     0.0574   0.3167   0.2834
Na217     Na     0.5397   0.3347   0.7436
Mg218     Mg     0.5667   0.3074   0.7166
Na219     Na     0.2564   0.0847   0.2897
Mg220     Mg     0.2834   0.0574   0.3167
Na221     Na     0.4603   0.1653   0.7564
Mg222     Mg     0.4333   0.1926   0.7834
Na223     Na     0.2897   0.2564   0.0847
Mg224     Mg     0.3167   0.2834   0.0574
Na225     Na     0.7436   0.5397   0.3347
Mg226     Mg     0.7166   0.5667   0.3074
Na227     Na     0.0397   0.2436   0.3347
Mg228     Mg     0.0667   0.2166   0.3074
Na229     Na     0.3347   0.0397   0.2436
Mg230     Mg     0.3074   0.0667   0.2166
Na231     Na     0.3347   0.2103   0.0064
Mg232     Mg     0.3074   0.1833   0.0334
Na233     Na     0.0064   0.3347   0.2103
Mg234     Mg     0.0334   0.3074   0.1833
Na235     Na     0.2103   0.0064   0.3347
Mg236     Mg     0.1833   0.0334   0.3074
Na237     Na     0.2103   0.3347   0.0064
Mg238     Mg     0.1833   0.3074   0.0334
Na239     Na     0.3347   0.0064   0.2103
Mg240     Mg     0.3074   0.0334   0.1833
Na241     Na     0.0064   0.2103   0.3347
Mg242     Mg     0.0334   0.1833   0.3074
Na243     Na     0.5847   0.4603   0.9936
Mg244     Mg     0.5574   0.4333   0.9666
Na245     Na     0.9936   0.5847   0.4603
Mg246     Mg     0.9666   0.5574   0.4333
Na247     Na     0.4603   0.9936   0.5847
Mg248     Mg     0.4333   0.9666   0.5574
Na249     Na     0.8347   0.7436   0.0397
Mg250     Mg     0.8074   0.7166   0.0667
Na251     Na     0.2436   0.7103   0.4153
Mg252     Mg     0.2166   0.6833   0.4426
Na253     Na     0.4153   0.7103   0.2436
Mg254     Mg     0.4426   0.6833   0.2166
Na255     Na     0.2897   0.0847   0.2564
Mg256     Mg     0.3167   0.0574   0.2834
Na257     Na     0.7564   0.1653   0.4603
Mg258     Mg     0.7834   0.1926   0.4333
Na259     Na     0.2436   0.4153   0.7103
Mg260     Mg     0.2166   0.4426   0.6833
Na261     Na     0.2564   0.9603   0.1653
Mg262     Mg     0.2834   0.9333   0.1926
Na263     Na     0.0397   0.8347   0.7436
Mg264     Mg     0.0667   0.8074   0.7166
Na265     Na     0.7436   0.0397   0.8347
Mg266     Mg     0.7166   0.0667   0.8074
Na267     Na     0.7436   0.4153   0.2103
Mg268     Mg     0.7166   0.4426   0.1833
Na269     Na     0.5847   0.2897   0.7564
Mg270     Mg     0.5574   0.3167   0.7834
Na271     Na     0.4153   0.2103   0.7436
Mg272     Mg     0.4426   0.1833   0.7166
Na273     Na     0.7564   0.5847   0.2897
Mg274     Mg     0.7834   0.5574   0.3167
Na275     Na     0.0847   0.9936   0.9603
Mg276     Mg     0.0574   0.9666   0.9333
Na277     Na     0.5064   0.4153   0.0397
Mg278     Mg     0.5334   0.4426   0.0667
Na279     Na     0.5397   0.0064   0.4153
Mg280     Mg     0.5667   0.0334   0.4426
Na281     Na     0.0064   0.5397   0.4153
Mg282     Mg     0.0334   0.5667   0.4426
Na283     Na     0.4153   0.0397   0.5064
Mg284     Mg     0.4426   0.0667   0.5334
Na285     Na     0.9153   0.7103   0.7436
Mg286     Mg     0.9426   0.6833   0.7166
Na287     Na     0.7436   0.9153   0.7103
Mg288     Mg     0.7166   0.9426   0.6833
Na289     Na     0.9153   0.7436   0.7103
Mg290     Mg     0.9426   0.7166   0.6833
Na291     Na     0.0847   0.7897   0.7564
Mg292     Mg     0.0574   0.8167   0.7834
Na293     Na     0.0397   0.3347   0.2436
Mg294     Mg     0.0667   0.3074   0.2166
Na295     Na     0.7103   0.9153   0.7436
Mg296     Mg     0.6833   0.9426   0.7166
Na297     Na     0.7564   0.0847   0.7897
Mg298     Mg     0.7834   0.0574   0.8167
Na299     Na     0.3347   0.5397   0.7436
Mg300     Mg     0.3074   0.5667   0.7166
Na301     Na     0.7103   0.7436   0.9153
Mg302     Mg     0.6833   0.7166   0.9426
Na303     Na     0.5397   0.7436   0.3347
Mg304     Mg     0.5667   0.7166   0.3074
Na305     Na     0.7436   0.7103   0.9153
Mg306     Mg     0.7166   0.6833   0.9426
Na307     Na     0.7897   0.7564   0.0847
Mg308     Mg     0.8167   0.7834   0.0574
Na309     Na     0.0847   0.2564   0.2897
Mg310     Mg     0.0574   0.2834   0.3167
Na311     Na     0.4936   0.4603   0.0847
Mg312     Mg     0.4666   0.4333   0.0574
Na313     Na     0.1653   0.7564   0.4603
Mg314     Mg     0.1926   0.7834   0.4333
Na315     Na     0.0847   0.4936   0.4603
Mg316     Mg     0.0574   0.4666   0.4333
Na317     Na     0.4603   0.0847   0.4936
Mg318     Mg     0.4333   0.0574   0.4666
Na319     Na     0.7103   0.2436   0.4153
Mg320     Mg     0.6833   0.2166   0.4426
Na321     Na     0.0397   0.4153   0.5064
Mg322     Mg     0.0667   0.4426   0.5334
Na323     Na     0.4153   0.5064   0.0397
Mg324     Mg     0.4426   0.5334   0.0667
Na325     Na     0.4153   0.2436   0.7103
Mg326     Mg     0.4426   0.2166   0.6833
Na327     Na     0.5064   0.3347   0.7103
Mg328     Mg     0.5334   0.3074   0.6833
Na329     Na     0.3347   0.5064   0.7103
Mg330     Mg     0.3074   0.5334   0.6833
Na331     Na     0.3347   0.7103   0.5064
Mg332     Mg     0.3074   0.6833   0.5334
Na333     Na     0.7103   0.4153   0.2436
Mg334     Mg     0.6833   0.4426   0.2166
Na335     Na     0.5064   0.7103   0.3347
Mg336     Mg     0.5334   0.6833   0.3074
Na337     Na     0.7103   0.5064   0.3347
Mg338     Mg     0.6833   0.5334   0.3074
Na339     Na     0.7103   0.3347   0.5064
Mg340     Mg     0.6833   0.3074   0.5334
Na341     Na     0.2564   0.2897   0.0847
Mg342     Mg     0.2834   0.3167   0.0574
Na343     Na     0.2436   0.3347   0.0397
Mg344     Mg     0.2166   0.3074   0.0667
Na345     Na     0.7897   0.1653   0.4936
Mg346     Mg     0.8167   0.1926   0.4666
Na347     Na     0.4936   0.7897   0.1653
Mg348     Mg     0.4666   0.8167   0.1926
Na349     Na     0.7897   0.4936   0.1653
Mg350     Mg     0.8167   0.4666   0.1926
Na351     Na     0.4936   0.1653   0.7897
Mg352     Mg     0.4666   0.1926   0.8167
Na353     Na     0.1653   0.4936   0.7897
Mg354     Mg     0.1926   0.4666   0.8167
Na355     Na     0.1653   0.7897   0.4936
Mg356     Mg     0.1926   0.8167   0.4666
Na357     Na     0.2897   0.1653   0.9936
Mg358     Mg     0.3167   0.1926   0.9666
Na359     Na     0.9936   0.2897   0.1653
Mg360     Mg     0.9666   0.3167   0.1926
Na361     Na     0.1653   0.9936   0.2897
Mg362     Mg     0.1926   0.9666   0.3167
Na363     Na     0.1653   0.2897   0.9936
Mg364     Mg     0.1926   0.3167   0.9666
Na365     Na     0.2897   0.9936   0.1653
Mg366     Mg     0.3167   0.9666   0.1926
Na367     Na     0.9936   0.1653   0.2897
Mg368     Mg     0.9666   0.1926   0.3167
Na369     Na     0.7897   0.0847   0.7564
Mg370     Mg     0.8167   0.0574   0.7834
Na371     Na     0.2103   0.4153   0.7436
Mg372     Mg     0.1833   0.4426   0.7166
Na373     Na     0.7564   0.7897   0.0847
Mg374     Mg     0.7834   0.8167   0.0574
Na375     Na     0.0847   0.7564   0.7897
Mg376     Mg     0.0574   0.7834   0.8167
Na377     Na     0.7436   0.3347   0.5397
Mg378     Mg     0.7166   0.3074   0.5667
Na379     Na     0.3347   0.7436   0.5397
Mg380     Mg     0.3074   0.7166   0.5667
Na381     Na     0.5064   0.0397   0.4153
Mg382     Mg     0.5334   0.0667   0.4426
Na383     Na     0.3347   0.2436   0.0397
Mg384     Mg     0.3074   0.2166   0.0667
H385     H     0.1348   0.8768   0.2853
Li386     Li     0.1769   0.8919   0.2995
O387     O     0.1949   0.874   0.2599
F388     F     0.1525   0.86   0.2452
H389     H     0.1268   0.8848   0.2147
Li390     Li     0.1419   0.9269   0.2005
O391     O     0.124   0.9449   0.2401
F392     F     0.11   0.9025   0.2548
O393     O     0.874   0.2599   0.1949
F394     F     0.86   0.2452   0.1525
H395     H     0.8768   0.2853   0.1348
Li396     Li     0.8919   0.2995   0.1769
H397     H     0.8848   0.2147   0.1268
Li398     Li     0.9269   0.2005   0.1419
O399     O     0.9449   0.2401   0.124
F400     F     0.9025   0.2548   0.11
O401     O     0.3051   0.7401   0.626
F402     F     0.3475   0.7548   0.64
H403     H     0.3652   0.7147   0.6232
Li404     Li     0.3231   0.7005   0.6081
H405     H     0.3732   0.7853   0.6152
Li406     Li     0.3581   0.7995   0.5731
O407     O     0.376   0.7599   0.5551
F408     F     0.39   0.7452   0.5975
O409     O     0.4449   0.626   0.0099
F410     F     0.4025   0.64   0.9952
H411     H     0.3848   0.6232   0.0353
Li412     Li     0.4269   0.6081   0.0495
O413     O     0.374   0.5551   0.9901
F414     F     0.36   0.5975   0.0048
H415     H     0.3768   0.6152   0.9647
Li416     Li     0.3919   0.5731   0.9505
O417     O     0.0099   0.4449   0.626
F418     F     0.9952   0.4025   0.64
H419     H     0.0353   0.3848   0.6232
Li420     Li     0.0495   0.4269   0.6081
O421     O     0.9901   0.374   0.5551
F422     F     0.0048   0.36   0.5975
H423     H     0.9647   0.3768   0.6152
Li424     Li     0.9505   0.3919   0.5731
O425     O     0.874   0.5551   0.4901
F426     F     0.86   0.5975   0.5048
H427     H     0.8768   0.6152   0.4647
Li428     Li     0.8919   0.5731   0.4505
O429     O     0.9449   0.626   0.5099
F430     F     0.9025   0.64   0.4952
H431     H     0.8848   0.6232   0.5353
Li432     Li     0.9269   0.6081   0.5495
O433     O     0.626   0.3051   0.7401
F434     F     0.64   0.3475   0.7548
H435     H     0.6232   0.3652   0.7147
Li436     Li     0.6081   0.3231   0.7005
H437     H     0.6152   0.3732   0.7853
Li438     Li     0.5731   0.3581   0.7995
O439     O     0.5551   0.376   0.7599
F440     F     0.5975   0.39   0.7452
O441     O     0.7401   0.626   0.3051
F442     F     0.7548   0.64   0.3475
H443     H     0.7147   0.6232   0.3652
Li444     Li     0.7005   0.6081   0.3231
H445     H     0.7853   0.6152   0.3732
Li446     Li     0.7995   0.5731   0.3581
O447     O     0.7599   0.5551   0.376
F448     F     0.7452   0.5975   0.39
O449     O     0.126   0.2401   0.3051
F450     F     0.14   0.2548   0.3475
H451     H     0.1232   0.2147   0.3652
Li452     Li     0.1081   0.2005   0.3231
O453     O     0.0551   0.2599   0.376
F454     F     0.0975   0.2452   0.39
H455     H     0.1152   0.2853   0.3732
Li456     Li     0.0731   0.2995   0.3581
O457     O     0.626   0.4449   0.0099
F458     F     0.64   0.4025   0.9952
H459     H     0.6232   0.3848   0.0353
Li460     Li     0.6081   0.4269   0.0495
H461     H     0.6152   0.3768   0.9647
Li462     Li     0.5731   0.3919   0.9505
O463     O     0.5551   0.374   0.9901
F464     F     0.5975   0.36   0.0048
O465     O     0.4449   0.7401   0.124
F466     F     0.4025   0.7548   0.11
H467     H     0.3848   0.7147   0.1268
Li468     Li     0.4269   0.7005   0.1419
H469     H     0.3768   0.7853   0.1348
Li470     Li     0.3919   0.7995   0.1769
O471     O     0.374   0.7599   0.1949
F472     F     0.36   0.7452   0.1525
O473     O     0.4449   0.126   0.5099
F474     F     0.4025   0.14   0.4952
H475     H     0.3848   0.1232   0.5353
Li476     Li     0.4269   0.1081   0.5495
O477     O     0.374   0.0551   0.4901
F478     F     0.36   0.0975   0.5048
H479     H     0.3768   0.1152   0.4647
Li480     Li     0.3919   0.0731   0.4505
O481     O     0.874   0.9901   0.0551
F482     F     0.86   0.0048   0.0975
H483     H     0.8768   0.9647   0.1152
Li484     Li     0.8919   0.9505   0.0731
H485     H     0.8848   0.0353   0.1232
Li486     Li     0.9269   0.0495   0.1081
O487     O     0.9449   0.0099   0.126
F488     F     0.9025   0.9952   0.14
H489     H     0.7853   0.1348   0.3768
Li490     Li     0.7995   0.1769   0.3919
O491     O     0.7599   0.1949   0.374
F492     F     0.7452   0.1525   0.36
O493     O     0.7401   0.124   0.4449
F494     F     0.7548   0.11   0.4025
H495     H     0.7147   0.1268   0.3848
Li496     Li     0.7005   0.1419   0.4269
O497     O     0.0099   0.626   0.4449
F498     F     0.9952   0.64   0.4025
H499     H     0.0353   0.6232   0.3848
Li500     Li     0.0495   0.6081   0.4269
O501     O     0.9901   0.5551   0.374
F502     F     0.0048   0.5975   0.36
H503     H     0.9647   0.6152   0.3768
Li504     Li     0.9505   0.5731   0.3919
H505     H     0.1268   0.3848   0.7147
Li506     Li     0.1419   0.4269   0.7005
O507     O     0.124   0.4449   0.7401
F508     F     0.11   0.4025   0.7548
O509     O     0.1949   0.374   0.7599
F510     F     0.1525   0.36   0.7452
H511     H     0.1348   0.3768   0.7853
Li512     Li     0.1769   0.3919   0.7995
O513     O     0.6949   0.2599   0.374
F514     F     0.6525   0.2452   0.36
H515     H     0.6348   0.2853   0.3768
Li516     Li     0.6769   0.2995   0.3919
H517     H     0.6268   0.2147   0.3848
Li518     Li     0.6419   0.2005   0.4269
O519     O     0.624   0.2401   0.4449
F520     F     0.61   0.2548   0.4025
H521     H     0.8848   0.7147   0.6268
Li522     Li     0.9269   0.7005   0.6419
O523     O     0.9449   0.7401   0.624
F524     F     0.9025   0.7548   0.61
H525     H     0.8768   0.7853   0.6348
Li526     Li     0.8919   0.7995   0.6769
O527     O     0.874   0.7599   0.6949
F528     F     0.86   0.7452   0.6525
H529     H     0.2147   0.6232   0.8652
Li530     Li     0.2005   0.6081   0.8231
O531     O     0.2401   0.626   0.8051
F532     F     0.2548   0.64   0.8475
H533     H     0.2853   0.6152   0.8732
Li534     Li     0.2995   0.5731   0.8581
O535     O     0.2599   0.5551   0.876
F536     F     0.2452   0.5975   0.89
O537     O     0.6949   0.876   0.9901
F538     F     0.6525   0.89   0.0048
H539     H     0.6348   0.8732   0.9647
Li540     Li     0.6769   0.8581   0.9505
H541     H     0.6268   0.8652   0.0353
Li542     Li     0.6419   0.8231   0.0495
O543     O     0.624   0.8051   0.0099
F544     F     0.61   0.8475   0.9952
H545     H     0.6268   0.8848   0.7147
Li546     Li     0.6419   0.9269   0.7005
O547     O     0.624   0.9449   0.7401
F548     F     0.61   0.9025   0.7548
H549     H     0.6348   0.8768   0.7853
Li550     Li     0.6769   0.8919   0.7995
O551     O     0.6949   0.874   0.7599
F552     F     0.6525   0.86   0.7452
O553     O     0.7599   0.6949   0.874
F554     F     0.7452   0.6525   0.86
H555     H     0.7853   0.6348   0.8768
Li556     Li     0.7995   0.6769   0.8919
H557     H     0.7147   0.6268   0.8848
Li558     Li     0.7005   0.6419   0.9269
O559     O     0.7401   0.624   0.9449
F560     F     0.7548   0.61   0.9025
O561     O     0.876   0.6949   0.9901
F562     F     0.89   0.6525   0.0048
H563     H     0.8732   0.6348   0.9647
Li564     Li     0.8581   0.6769   0.9505
H565     H     0.8652   0.6268   0.0353
Li566     Li     0.8231   0.6419   0.0495
O567     O     0.8051   0.624   0.0099
F568     F     0.8475   0.61   0.9952
O569     O     0.6949   0.9901   0.876
F570     F     0.6525   0.0048   0.89
H571     H     0.6348   0.9647   0.8732
Li572     Li     0.6769   0.9505   0.8581
H573     H     0.6268   0.0353   0.8652
Li574     Li     0.6419   0.0495   0.8231
O575     O     0.624   0.0099   0.8051
F576     F     0.61   0.9952   0.8475
O577     O     0.9901   0.876   0.6949
F578     F     0.0048   0.89   0.6525
H579     H     0.9647   0.8732   0.6348
Li580     Li     0.9505   0.8581   0.6769
H581     H     0.0353   0.8652   0.6268
Li582     Li     0.0495   0.8231   0.6419
O583     O     0.0099   0.8051   0.624
F584     F     0.9952   0.8475   0.61
H585     H     0.6232   0.8652   0.2147
Li586     Li     0.6081   0.8231   0.2005
O587     O     0.626   0.8051   0.2401
F588     F     0.64   0.8475   0.2548
H589     H     0.6152   0.8732   0.2853
Li590     Li     0.5731   0.8581   0.2995
O591     O     0.5551   0.876   0.2599
F592     F     0.5975   0.89   0.2452
O593     O     0.9901   0.6949   0.876
F594     F     0.0048   0.6525   0.89
H595     H     0.9647   0.6348   0.8732
Li596     Li     0.9505   0.6769   0.8581
H597     H     0.0353   0.6268   0.8652
Li598     Li     0.0495   0.6419   0.8231
O599     O     0.0099   0.624   0.8051
F600     F     0.9952   0.61   0.8475
O601     O     0.876   0.9901   0.6949
F602     F     0.89   0.0048   0.6525
H603     H     0.8732   0.9647   0.6348
Li604     Li     0.8581   0.9505   0.6769
H605     H     0.8652   0.0353   0.6268
Li606     Li     0.8231   0.0495   0.6419
O607     O     0.8051   0.0099   0.624
F608     F     0.8475   0.9952   0.61
O609     O     0.8051   0.2401   0.626
F610     F     0.8475   0.2548   0.64
H611     H     0.8652   0.2147   0.6232
Li612     Li     0.8231   0.2005   0.6081
H613     H     0.8732   0.2853   0.6152
Li614     Li     0.8581   0.2995   0.5731
O615     O     0.876   0.2599   0.5551
F616     F     0.89   0.2452   0.5975
O617     O     0.3051   0.2401   0.126
F618     F     0.3475   0.2548   0.14
H619     H     0.3652   0.2147   0.1232
Li620     Li     0.3231   0.2005   0.1081
O621     O     0.376   0.2599   0.0551
F622     F     0.39   0.2452   0.0975
H623     H     0.3732   0.2853   0.1152
Li624     Li     0.3581   0.2995   0.0731
O625     O     0.1949   0.2599   0.874
F626     F     0.1525   0.2452   0.86
H627     H     0.1348   0.2853   0.8768
Li628     Li     0.1769   0.2995   0.8919
H629     H     0.1268   0.2147   0.8848
Li630     Li     0.1419   0.2005   0.9269
O631     O     0.124   0.2401   0.9449
F632     F     0.11   0.2548   0.9025
O633     O     0.4449   0.0099   0.626
F634     F     0.4025   0.9952   0.64
H635     H     0.3848   0.0353   0.6232
Li636     Li     0.4269   0.0495   0.6081
H637     H     0.3768   0.9647   0.6152
Li638     Li     0.3919   0.9505   0.5731
O639     O     0.374   0.9901   0.5551
F640     F     0.36   0.0048   0.5975
O641     O     0.376   0.1949   0.9901
F642     F     0.39   0.1525   0.0048
H643     H     0.3732   0.1348   0.9647
Li644     Li     0.3581   0.1769   0.9505
O645     O     0.3051   0.124   0.0099
F646     F     0.3475   0.11   0.9952
H647     H     0.3652   0.1268   0.0353
Li648     Li     0.3231   0.1419   0.0495
O649     O     0.626   0.0099   0.4449
F650     F     0.64   0.9952   0.4025
H651     H     0.6232   0.0353   0.3848
Li652     Li     0.6081   0.0495   0.4269
O653     O     0.5551   0.9901   0.374
F654     F     0.5975   0.0048   0.36
H655     H     0.6152   0.9647   0.3768
Li656     Li     0.5731   0.9505   0.3919
O657     O     0.376   0.9901   0.1949
F658     F     0.39   0.0048   0.1525
H659     H     0.3732   0.9647   0.1348
Li660     Li     0.3581   0.9505   0.1769
O661     O     0.3051   0.0099   0.124
F662     F     0.3475   0.9952   0.11
H663     H     0.3652   0.0353   0.1268
Li664     Li     0.3231   0.0495   0.1419
O665     O     0.3051   0.126   0.2401
F666     F     0.3475   0.14   0.2548
H667     H     0.3652   0.1232   0.2147
Li668     Li     0.3231   0.1081   0.2005
O669     O     0.376   0.0551   0.2599
F670     F     0.39   0.0975   0.2452
H671     H     0.3732   0.1152   0.2853
Li672     Li     0.3581   0.0731   0.2995
O673     O     0.874   0.1949   0.2599
F674     F     0.86   0.1525   0.2452
H675     H     0.8768   0.1348   0.2853
Li676     Li     0.8919   0.1769   0.2995
H677     H     0.8848   0.1268   0.2147
Li678     Li     0.9269   0.1419   0.2005
O679     O     0.9449   0.124   0.2401
F680     F     0.9025   0.11   0.2548
H681     H     0.1348   0.8732   0.4647
Li682     Li     0.1769   0.8581   0.4505
O683     O     0.1949   0.876   0.4901
F684     F     0.1525   0.89   0.5048
H685     H     0.1268   0.8652   0.5353
Li686     Li     0.1419   0.8231   0.5495
O687     O     0.124   0.8051   0.5099
F688     F     0.11   0.8475   0.4952
H689     H     0.6348   0.3768   0.2853
Li690     Li     0.6769   0.3919   0.2995
O691     O     0.6949   0.374   0.2599
F692     F     0.6525   0.36   0.2452
O693     O     0.624   0.4449   0.2401
F694     F     0.61   0.4025   0.2548
H695     H     0.6268   0.3848   0.2147
Li696     Li     0.6419   0.4269   0.2005
O697     O     0.5099   0.4449   0.126
F698     F     0.4952   0.4025   0.14
H699     H     0.5353   0.3848   0.1232
Li700     Li     0.5495   0.4269   0.1081
O701     O     0.4901   0.374   0.0551
F702     F     0.5048   0.36   0.0975
H703     H     0.4647   0.3768   0.1152
Li704     Li     0.4505   0.3919   0.0731
O705     O     0.874   0.0551   0.9901
F706     F     0.86   0.0975   0.0048
H707     H     0.8768   0.1152   0.9647
Li708     Li     0.8919   0.0731   0.9505
O709     O     0.9449   0.126   0.0099
F710     F     0.9025   0.14   0.9952
H711     H     0.8848   0.1232   0.0353
Li712     Li     0.9269   0.1081   0.0495
O713     O     0.5099   0.126   0.4449
F714     F     0.4952   0.14   0.4025
H715     H     0.5353   0.1232   0.3848
Li716     Li     0.5495   0.1081   0.4269
H717     H     0.4647   0.1152   0.3768
Li718     Li     0.4505   0.0731   0.3919
O719     O     0.4901   0.0551   0.374
F720     F     0.5048   0.0975   0.36
O721     O     0.7599   0.876   0.0551
F722     F     0.7452   0.89   0.0975
H723     H     0.7853   0.8732   0.1152
Li724     Li     0.7995   0.8581   0.0731
H725     H     0.7147   0.8652   0.1232
Li726     Li     0.7005   0.8231   0.1081
O727     O     0.7401   0.8051   0.126
F728     F     0.7548   0.8475   0.14
O729     O     0.7599   0.374   0.1949
F730     F     0.7452   0.36   0.1525
H731     H     0.7853   0.3768   0.1348
Li732     Li     0.7995   0.3919   0.1769
H733     H     0.7147   0.3848   0.1268
Li734     Li     0.7005   0.4269   0.1419
O735     O     0.7401   0.4449   0.124
F736     F     0.7548   0.4025   0.11
S737     S     0.4757   0.0089   0.1786
Ce738     Ce     0.462   0.9953   0.2214
S739     S     0.5714   0.2411   0.9757
Ce740     Ce     0.5286   0.2547   0.962
S741     S     0.5089   0.1786   0.9757
Ce742     Ce     0.4953   0.2214   0.962
S743     S     0.4757   0.2411   0.0714
Ce744     Ce     0.462   0.2547   0.0286
S745     S     0.5089   0.0714   0.2743
Ce746     Ce     0.4953   0.0286   0.288
S747     S     0.7411   0.1786   0.2743
Ce748     Ce     0.7547   0.2214   0.2879
S749     S     0.7411   0.2743   0.1786
Ce750     Ce     0.7547   0.288   0.2214
S751     S     0.5714   0.2743   0.0089
Ce752     Ce     0.5286   0.2879   0.9953
S753     S     0.7743   0.0089   0.0714
Ce754     Ce     0.788   0.9953   0.0286
S755     S     0.7411   0.0714   0.9757
Ce756     Ce     0.7547   0.0286   0.962
S757     S     0.7743   0.2411   0.1786
Ce758     Ce     0.788   0.2547   0.2214
S759     S     0.7743   0.1786   0.2411
Ce760     Ce     0.788   0.2214   0.2547
S761     S     0.6786   0.2743   0.2411
Ce762     Ce     0.7214   0.288   0.2547
S763     S     0.6786   0.9757   0.0089
Ce764     Ce     0.7214   0.962   0.9953
S765     S     0.6786   0.2411   0.2743
Ce766     Ce     0.7214   0.2547   0.288
S767     S     0.7411   0.9757   0.0714
Ce768     Ce     0.7547   0.962   0.0286
S769     S     0.4757   0.0714   0.2411
Ce770     Ce     0.462   0.0286   0.2547
S771     S     0.5714   0.9757   0.2411
Ce772     Ce     0.5286   0.962   0.2547
S773     S     0.5714   0.0089   0.2743
Ce774     Ce     0.5286   0.9953   0.288
S775     S     0.6786   0.0089   0.9757
Ce776     Ce     0.7214   0.9953   0.962
S777     S     0.5089   0.9757   0.1786
Ce778     Ce     0.4953   0.962   0.2214
S779     S     0.5089   0.2743   0.0714
Ce780     Ce     0.4953   0.288   0.0286
S781     S     0.7743   0.0714   0.0089
Ce782     Ce     0.788   0.0286   0.9953
S783     S     0.4757   0.1786   0.0089
Ce784     Ce     0.462   0.2214   0.9953
Be785     Be     0.6582   0.8351   0.125
He786     He     0.6722   0.8777   0.1389
C787     C     0.6582   0.9203   0.125
Be788     Be     0.625   0.4149   0.1582
He789     He     0.6111   0.3723   0.1722
C790     C     0.625   0.3297   0.1582
Be791     Be     0.6582   0.125   0.4149
He792     He     0.6722   0.1111   0.3723
C793     C     0.6582   0.125   0.3297
Be794     Be     0.625   0.8351   0.0918
He795     He     0.6111   0.8777   0.0778
C796     C     0.625   0.9203   0.0918
Be797     Be     0.9149   0.125   0.1582
He798     He     0.8723   0.1111   0.1722
C799     C     0.8297   0.125   0.1582
Be800     Be     0.625   0.0918   0.8351
He801     He     0.6111   0.0778   0.8777
C802     C     0.625   0.0918   0.9203
Be803     Be     0.625   0.4149   0.0918
He804     He     0.6389   0.3723   0.0778
C805     C     0.625   0.3297   0.0918
Be806     Be     0.9149   0.125   0.0918
He807     He     0.8723   0.1389   0.0778
C808     C     0.8297   0.125   0.0918
Be809     Be     0.6582   0.125   0.8351
He810     He     0.6722   0.1389   0.8777
C811     C     0.6582   0.125   0.9203
Be812     Be     0.625   0.1582   0.8351
He813     He     0.6389   0.1722   0.8777
C814     C     0.625   0.1582   0.9203
Be815     Be     0.625   0.1582   0.4149
He816     He     0.6111   0.1722   0.3723
C817     C     0.625   0.1582   0.3297
Be818     Be     0.625   0.8351   0.1582
He819     He     0.6389   0.8777   0.1722
C820     C     0.625   0.9203   0.1582
Be821     Be     0.9149   0.1582   0.125
He822     He     0.8723   0.1722   0.1111
C823     C     0.8297   0.1582   0.125
Be824     Be     0.5918   0.125   0.4149
He825     He     0.5778   0.1389   0.3723
C826     C     0.5918   0.125   0.3297
Be827     Be     0.6582   0.4149   0.125
He828     He     0.6722   0.3723   0.1111
C829     C     0.6582   0.3297   0.125
Be830     Be     0.625   0.0918   0.4149
He831     He     0.6389   0.0778   0.3723
C832     C     0.625   0.0918   0.3297
Be833     Be     0.9149   0.0918   0.125
He834     He     0.8723   0.0778   0.1389
C835     C     0.8297   0.0918   0.125
Be836     Be     0.3351   0.125   0.0918
He837     He     0.3777   0.1111   0.0778
C838     C     0.4203   0.125   0.0918
Be839     Be     0.3351   0.0918   0.125
He840     He     0.3777   0.0778   0.1111
C841     C     0.4203   0.0918   0.125
Be842     Be     0.5918   0.8351   0.125
He843     He     0.5778   0.8777   0.1111
C844     C     0.5918   0.9203   0.125
Be845     Be     0.5918   0.4149   0.125
He846     He     0.5778   0.3723   0.1389
C847     C     0.5918   0.3297   0.125
Be848     Be     0.5918   0.125   0.8351
He849     He     0.5778   0.1111   0.8777
C850     C     0.5918   0.125   0.9203
Be851     Be     0.3351   0.125   0.1582
He852     He     0.3777   0.1389   0.1722
C853     C     0.4203   0.125   0.1582
Be854     Be     0.3351   0.1582   0.125
He855     He     0.3777   0.1722   0.1389
C856     C     0.4203   0.1582   0.125
N857     N     0.5055   0.9173   0.2112
Ne858     Ne     0.5204   0.9312   0.1689
N859     N     0.5388   0.9173   0.2445
Ne860     Ne     0.5811   0.9312   0.2296
B861     B     0.5962   0.9438   0.187
B862     B     0.563   0.9438   0.1538
N863     N     0.7445   0.9173   0.0388
Ne864     Ne     0.7296   0.9312   0.0811
N865     N     0.7112   0.9173   0.0055
Ne866     Ne     0.6689   0.9312   0.0204
B867     B     0.687   0.9438   0.0962
B868     B     0.6538   0.9438   0.063
N869     N     0.4173   0.2445   0.0388
Ne870     Ne     0.4312   0.2296   0.0811
N871     N     0.4173   0.2112   0.0055
Ne872     Ne     0.4312   0.1689   0.0204
B873     B     0.4438   0.187   0.0962
B874     B     0.4438   0.1538   0.063
N875     N     0.7445   0.0388   0.9173
Ne876     Ne     0.7296   0.0811   0.9312
N877     N     0.7112   0.0055   0.9173
Ne878     Ne     0.6689   0.0204   0.9312
B879     B     0.6538   0.063   0.9438
B880     B     0.687   0.0962   0.9438
N881     N     0.5055   0.3327   0.0388
Ne882     Ne     0.5204   0.3188   0.0811
N883     N     0.5388   0.3327   0.0055
Ne884     Ne     0.5811   0.3188   0.0204
B885     B     0.563   0.3062   0.0962
B886     B     0.5962   0.3062   0.063
N887     N     0.4173   0.0388   0.2445
Ne888     Ne     0.4312   0.0811   0.2296
N889     N     0.4173   0.0055   0.2112
Ne890     Ne     0.4312   0.0204   0.1689
B891     B     0.4438   0.063   0.1538
B892     B     0.4438   0.0962   0.187
N893     N     0.5055   0.2112   0.9173
Ne894     Ne     0.5204   0.1689   0.9312
N895     N     0.5388   0.2445   0.9173
Ne896     Ne     0.5811   0.2296   0.9312
B897     B     0.563   0.1538   0.9438
B898     B     0.5962   0.187   0.9438
N899     N     0.5055   0.0388   0.3327
Ne900     Ne     0.5204   0.0811   0.3188
N901     N     0.5388   0.0055   0.3327
Ne902     Ne     0.5811   0.0204   0.3188
B903     B     0.563   0.0962   0.3062
B904     B     0.5962   0.063   0.3062
N905     N     0.7445   0.3327   0.2112
Ne906     Ne     0.7296   0.3188   0.1689
N907     N     0.7112   0.3327   0.2445
Ne908     Ne     0.6689   0.3188   0.2296
B909     B     0.6538   0.3062   0.187
B910     B     0.687   0.3062   0.1538
N911     N     0.7445   0.2112   0.3327
Ne912     Ne     0.7296   0.1689   0.3188
N913     N     0.7112   0.2445   0.3327
Ne914     Ne     0.6689   0.2296   0.3188
B915     B     0.6538   0.187   0.3062
B916     B     0.687   0.1538   0.3062
N917     N     0.8327   0.0388   0.0055
Ne918     Ne     0.8188   0.0811   0.0204
N919     N     0.8327   0.0055   0.0388
Ne920     Ne     0.8188   0.0204   0.0811
B921     B     0.8062   0.0962   0.063
B922     B     0.8062   0.063   0.0962
N923     N     0.8327   0.2445   0.2112
Ne924     Ne     0.8188   0.2296   0.1689
N925     N     0.8327   0.2112   0.2445
Ne926     Ne     0.8188   0.1689   0.2296
B927     B     0.8062   0.1538   0.187
B928     B     0.8062   0.187   0.1538
Er929     Er     0.4881   0.0852   0.198
Er930     Er     0.4881   0.052   0.1648
Er931     Er     0.7619   0.1648   0.198
Er932     Er     0.7619   0.198   0.1648
Er933     Er     0.4881   0.198   0.0852
Er934     Er     0.4881   0.1648   0.052
Er935     Er     0.7619   0.0852   0.052
Er936     Er     0.7619   0.052   0.0852
Er937     Er     0.552   0.1648   0.9881
Er938     Er     0.5852   0.198   0.9881
Er939     Er     0.5852   0.9881   0.198
Er940     Er     0.552   0.9881   0.1648
Er941     Er     0.698   0.0852   0.9881
Er942     Er     0.6648   0.052   0.9881
Er943     Er     0.5852   0.2619   0.052
Er944     Er     0.552   0.2619   0.0852
Er945     Er     0.6648   0.2619   0.198
Er946     Er     0.698   0.2619   0.1648
Er947     Er     0.6648   0.198   0.2619
Er948     Er     0.698   0.1648   0.2619
Er949     Er     0.6648   0.9881   0.052
Er950     Er     0.698   0.9881   0.0852
Er951     Er     0.552   0.0852   0.2619
Er952     Er     0.5852   0.052   0.2619
Ti953     Ti     0.5979   0.1853   0.0315
Ti954     Ti     0.5647   0.1521   0.0315
Ti955     Ti     0.7185   0.0647   0.0979
Ti956     Ti     0.7185   0.0979   0.0647
Ti957     Ti     0.5647   0.0979   0.2185
Ti958     Ti     0.5979   0.0647   0.2185
V959     V     0.6582   0.0586   0.125
V960     V     0.6914   0.0918   0.125
V961     V     0.625   0.0918   0.1914
V962     V     0.625   0.0586   0.1582
V963     V     0.6582   0.125   0.1914
V964     V     0.6914   0.125   0.1582
Ti965     Ti     0.7185   0.1853   0.1521
Ti966     Ti     0.7185   0.1521   0.1853
V967     V     0.6582   0.1914   0.125
V968     V     0.6914   0.1582   0.125
V969     V     0.625   0.1914   0.0918
V970     V     0.625   0.1582   0.0586
V971     V     0.6582   0.125   0.0586
V972     V     0.6914   0.125   0.0918
Ti973     Ti     0.5315   0.0979   0.1853
Ti974     Ti     0.5315   0.0647   0.1521
Ti975     Ti     0.5647   0.2185   0.0979
Ti976     Ti     0.5979   0.2185   0.0647
Ti977     Ti     0.6521   0.0315   0.0647
Ti978     Ti     0.6853   0.0315   0.0979
Ti979     Ti     0.6521   0.2185   0.1853
Ti980     Ti     0.6853   0.2185   0.1521
Ti981     Ti     0.6521   0.1853   0.2185
Ti982     Ti     0.6853   0.1521   0.2185
Ti983     Ti     0.6853   0.0979   0.0315
Ti984     Ti     0.6521   0.0647   0.0315
Ti985     Ti     0.5647   0.0315   0.1521
Ti986     Ti     0.5979   0.0315   0.1853
V987     V     0.5918   0.1914   0.125
V988     V     0.5586   0.1582   0.125
V989     V     0.5918   0.125   0.1914
V990     V     0.5586   0.125   0.1582
V991     V     0.625   0.1582   0.1914
V992     V     0.625   0.1914   0.1582
Ti993     Ti     0.5315   0.1521   0.0647
Ti994     Ti     0.5315   0.1853   0.0979
V995     V     0.5918   0.0586   0.125
V996     V     0.5586   0.0918   0.125
V997     V     0.5918   0.125   0.0586
V998     V     0.5586   0.125   0.0918
V999     V     0.625   0.0918   0.0586
V1000     V     0.625   0.0586   0.0918
H1001     H     0.8652   0.1268   0.5353
Li1002     Li     0.8231   0.1419   0.5495
O1003     O     0.8051   0.124   0.5099
F1004     F     0.8475   0.11   0.4952
O1005     O     0.876   0.1949   0.4901
F1006     F     0.89   0.1525   0.5048
H1007     H     0.8732   0.1348   0.4647
Li1008     Li     0.8581   0.1769   0.4505
H1009     H     0.8652   0.7147   0.1232
Li1010     Li     0.8231   0.7005   0.1081
O1011     O     0.8051   0.7401   0.126
F1012     F     0.8475   0.7548   0.14
H1013     H     0.8732   0.7853   0.1152
Li1014     Li     0.8581   0.7995   0.0731
O1015     O     0.876   0.7599   0.0551
F1016     F     0.89   0.7452   0.0975
O1017     O     0.8051   0.626   0.2401
F1018     F     0.8475   0.64   0.2548
H1019     H     0.8652   0.6232   0.2147
Li1020     Li     0.8231   0.6081   0.2005
H1021     H     0.8732   0.6152   0.2853
Li1022     Li     0.8581   0.5731   0.2995
O1023     O     0.876   0.5551   0.2599
F1024     F     0.89   0.5975   0.2452
S1025     S     0.8214   0.0243   0.4911
Ce1026     Ce     0.7786   0.038   0.5047
S1027     S     0.9286   0.7257   0.4911
Ce1028     Ce     0.9714   0.7121   0.5047
S1029     S     0.7257   0.8214   0.2589
Ce1030     Ce     0.712   0.7786   0.2453
S1031     S     0.8214   0.7257   0.2589
Ce1032     Ce     0.7786   0.7121   0.2453
S1033     S     0.7589   0.9286   0.5243
Ce1034     Ce     0.7453   0.9714   0.5379
S1035     S     0.9911   0.8214   0.5243
Ce1036     Ce     0.0047   0.7786   0.538
S1037     S     0.7589   0.0243   0.4286
Ce1038     Ce     0.7453   0.038   0.4714
S1039     S     0.7589   0.8214   0.2257
Ce1040     Ce     0.7453   0.7786   0.212
S1041     S     0.8214   0.7589   0.2257
Ce1042     Ce     0.7786   0.7453   0.212
S1043     S     0.0243   0.8214   0.4911
Ce1044     Ce     0.038   0.7786   0.5047
S1045     S     0.0243   0.9286   0.2589
Ce1046     Ce     0.0379   0.9714   0.2453
S1047     S     0.9286   0.7589   0.5243
Ce1048     Ce     0.9714   0.7453   0.538
S1049     S     0.8214   0.9911   0.5243
Ce1050     Ce     0.7786   0.0047   0.538
S1051     S     0.9911   0.9286   0.2257
Ce1052     Ce     0.0047   0.9714   0.212
S1053     S     0.7257   0.9286   0.4911
Ce1054     Ce     0.712   0.9714   0.5047
S1055     S     0.7589   0.7257   0.3214
Ce1056     Ce     0.7453   0.712   0.2786
S1057     S     0.7257   0.7589   0.3214
Ce1058     Ce     0.7121   0.7453   0.2786
S1059     S     0.7257   0.9911   0.4286
Ce1060     Ce     0.7121   0.0047   0.4714
S1061     S     0.0243   0.7589   0.4286
Ce1062     Ce     0.038   0.7453   0.4714
S1063     S     0.0243   0.9911   0.3214
Ce1064     Ce     0.038   0.0047   0.2786
S1065     S     0.9286   0.0243   0.2589
Ce1066     Ce     0.9714   0.038   0.2453
S1067     S     0.9911   0.7257   0.4286
Ce1068     Ce     0.0047   0.712   0.4714
S1069     S     0.9286   0.9911   0.2257
Ce1070     Ce     0.9714   0.0047   0.2121
S1071     S     0.9911   0.0243   0.3214
Ce1072     Ce     0.0047   0.038   0.2786
Be1073     Be     0.8418   0.875   0.6649
He1074     He     0.8278   0.8611   0.6223
C1075     C     0.8418   0.875   0.5797
Be1076     Be     0.875   0.8418   0.6649
He1077     He     0.8611   0.8278   0.6223
C1078     C     0.875   0.8418   0.5797
Be1079     Be     0.5851   0.9082   0.375
He1080     He     0.6277   0.9222   0.3611
C1081     C     0.6703   0.9082   0.375
Be1082     Be     0.9082   0.875   0.6649
He1083     He     0.9222   0.8889   0.6223
C1084     C     0.9082   0.875   0.5797
Be1085     Be     0.9082   0.5851   0.375
He1086     He     0.9222   0.6277   0.3611
C1087     C     0.9082   0.6703   0.375
Be1088     Be     0.875   0.9082   0.6649
He1089     He     0.8889   0.9222   0.6223
C1090     C     0.875   0.9082   0.5797
Be1091     Be     0.1649   0.9082   0.375
He1092     He     0.1223   0.9222   0.3889
C1093     C     0.0797   0.9082   0.375
Be1094     Be     0.9082   0.1649   0.375
He1095     He     0.9222   0.1223   0.3889
C1096     C     0.9082   0.0797   0.375
Be1097     Be     0.1649   0.875   0.4082
He1098     He     0.1223   0.8889   0.4222
C1099     C     0.0797   0.875   0.4082
Be1100     Be     0.1649   0.8418   0.375
He1101     He     0.1223   0.8278   0.3611
C1102     C     0.0797   0.8418   0.375
Be1103     Be     0.1649   0.875   0.3418
He1104     He     0.1223   0.8611   0.3278
C1105     C     0.0797   0.875   0.3418
Be1106     Be     0.875   0.9082   0.0851
He1107     He     0.8611   0.9222   0.1277
C1108     C     0.875   0.9082   0.1703
Be1109     Be     0.875   0.5851   0.4082
He1110     He     0.8611   0.6277   0.4222
C1111     C     0.875   0.6703   0.4082
Be1112     Be     0.5851   0.875   0.4082
He1113     He     0.6277   0.8611   0.4222
C1114     C     0.6703   0.875   0.4082
Be1115     Be     0.8418   0.5851   0.375
He1116     He     0.8278   0.6277   0.3889
C1117     C     0.8418   0.6703   0.375
Be1118     Be     0.5851   0.8418   0.375
He1119     He     0.6277   0.8278   0.3889
C1120     C     0.6703   0.8418   0.375
Be1121     Be     0.875   0.1649   0.3418
He1122     He     0.8611   0.1223   0.3278
C1123     C     0.875   0.0797   0.3418
Be1124     Be     0.9082   0.875   0.0851
He1125     He     0.9222   0.8611   0.1277
C1126     C     0.9082   0.875   0.1703
Be1127     Be     0.8418   0.875   0.0851
He1128     He     0.8278   0.8889   0.1277
C1129     C     0.8418   0.875   0.1703
Be1130     Be     0.8418   0.1649   0.375
He1131     He     0.8278   0.1223   0.3611
C1132     C     0.8418   0.0797   0.375
Be1133     Be     0.875   0.5851   0.3418
He1134     He     0.8889   0.6277   0.3278
C1135     C     0.875   0.6703   0.3418
Be1136     Be     0.5851   0.875   0.3418
He1137     He     0.6277   0.8889   0.3278
C1138     C     0.6703   0.875   0.3418
Be1139     Be     0.875   0.1649   0.4082
He1140     He     0.8889   0.1223   0.4222
C1141     C     0.875   0.0797   0.4082
Be1142     Be     0.875   0.8418   0.0851
He1143     He     0.8889   0.8278   0.1277
C1144     C     0.875   0.8418   0.1703
N1145     N     0.9612   0.9945   0.1673
Ne1146     Ne     0.9189   0.9796   0.1811
N1147     N     0.9945   0.9612   0.1673
Ne1148     Ne     0.9796   0.9189   0.1812
B1149     B     0.9038   0.937   0.1938
B1150     B     0.937   0.9038   0.1938
N1151     N     0.0827   0.9945   0.2888
Ne1152     Ne     0.0688   0.9796   0.3311
N1153     N     0.0827   0.9612   0.2555
Ne1154     Ne     0.0688   0.9189   0.2704
B1155     B     0.0562   0.9038   0.313
B1156     B     0.0562   0.937   0.3462
N1157     N     0.9945   0.0827   0.2888
Ne1158     Ne     0.9796   0.0688   0.3311
N1159     N     0.9612   0.0827   0.2555
Ne1160     Ne     0.9189   0.0688   0.2704
B1161     B     0.9038   0.0562   0.313
B1162     B     0.937   0.0562   0.3462
N1163     N     0.9945   0.7888   0.5827
Ne1164     Ne     0.9796   0.8311   0.5689
N1165     N     0.9612   0.7555   0.5827
Ne1166     Ne     0.9189   0.7704   0.5688
B1167     B     0.9038   0.813   0.5562
B1168     B     0.937   0.8462   0.5562
N1169     N     0.7888   0.0827   0.4945
Ne1170     Ne     0.8311   0.0688   0.4796
N1171     N     0.7555   0.0827   0.4612
Ne1172     Ne     0.7704   0.0688   0.4189
B1173     B     0.8462   0.0562   0.437
B1174     B     0.813   0.0562   0.4038
N1175     N     0.0827   0.7888   0.4945
Ne1176     Ne     0.0688   0.8311   0.4796
N1177     N     0.0827   0.7555   0.4612
Ne1178     Ne     0.0688   0.7704   0.4189
B1179     B     0.0562   0.8462   0.437
B1180     B     0.0562   0.813   0.4038
N1181     N     0.7555   0.9612   0.5827
Ne1182     Ne     0.7704   0.9189   0.5689
N1183     N     0.7888   0.9945   0.5827
Ne1184     Ne     0.8311   0.9796   0.5689
B1185     B     0.813   0.9038   0.5562
B1186     B     0.8462   0.937   0.5562
N1187     N     0.7888   0.7555   0.1673
Ne1188     Ne     0.8311   0.7704   0.1811
N1189     N     0.7555   0.7888   0.1673
Ne1190     Ne     0.7704   0.8311   0.1812
B1191     B     0.8462   0.813   0.1938
B1192     B     0.813   0.8462   0.1938
N1193     N     0.6673   0.9945   0.4612
Ne1194     Ne     0.6811   0.9796   0.4189
N1195     N     0.6673   0.9612   0.4945
Ne1196     Ne     0.6812   0.9189   0.4796
B1197     B     0.6938   0.9038   0.437
B1198     B     0.6938   0.937   0.4038
N1199     N     0.9945   0.6673   0.4612
Ne1200     Ne     0.9796   0.6812   0.4189
N1201     N     0.9612   0.6673   0.4945
Ne1202     Ne     0.9189   0.6812   0.4796
B1203     B     0.9038   0.6938   0.437
B1204     B     0.937   0.6938   0.4038
N1205     N     0.7888   0.6673   0.2555
Ne1206     Ne     0.8311   0.6811   0.2704
N1207     N     0.7555   0.6673   0.2888
Ne1208     Ne     0.7704   0.6812   0.3311
B1209     B     0.813   0.6938   0.3462
B1210     B     0.8462   0.6938   0.313
N1211     N     0.6673   0.7555   0.2888
Ne1212     Ne     0.6811   0.7704   0.3311
N1213     N     0.6673   0.7888   0.2555
Ne1214     Ne     0.6812   0.8311   0.2704
B1215     B     0.6938   0.813   0.3462
B1216     B     0.6938   0.8462   0.313
Er1217     Er     0.0119   0.9148   0.302
Er1218     Er     0.0119   0.948   0.3352
Er1219     Er     0.9148   0.0119   0.302
Er1220     Er     0.948   0.0119   0.3352
Er1221     Er     0.0119   0.802   0.4148
Er1222     Er     0.0119   0.8352   0.448
Er1223     Er     0.802   0.0119   0.4148
Er1224     Er     0.8352   0.0119   0.448
Er1225     Er     0.948   0.9148   0.2381
Er1226     Er     0.9148   0.948   0.2381
Er1227     Er     0.9148   0.7381   0.448
Er1228     Er     0.948   0.7381   0.4148
Er1229     Er     0.802   0.8352   0.2381
Er1230     Er     0.8352   0.802   0.2381
Er1231     Er     0.7381   0.9148   0.448
Er1232     Er     0.7381   0.948   0.4148
Er1233     Er     0.802   0.9148   0.5119
Er1234     Er     0.8352   0.948   0.5119
Er1235     Er     0.802   0.7381   0.3352
Er1236     Er     0.8352   0.7381   0.302
Er1237     Er     0.7381   0.802   0.3352
Er1238     Er     0.7381   0.8352   0.302
Er1239     Er     0.9148   0.802   0.5119
Er1240     Er     0.948   0.8352   0.5119
Ti1241     Ti     0.8479   0.7815   0.3147
Ti1242     Ti     0.8147   0.7815   0.3479
Ti1243     Ti     0.9685   0.8147   0.4021
Ti1244     Ti     0.9685   0.8479   0.4353
Ti1245     Ti     0.8479   0.9685   0.4353
Ti1246     Ti     0.8147   0.9685   0.4021
Ti1247     Ti     0.7815   0.9353   0.4021
Ti1248     Ti     0.7815   0.9021   0.4353
Ti1249     Ti     0.9685   0.9353   0.3479
Ti1250     Ti     0.9685   0.9021   0.3147
Ti1251     Ti     0.9353   0.8479   0.4685
Ti1252     Ti     0.9021   0.8147   0.4685
Ti1253     Ti     0.8479   0.8147   0.2815
Ti1254     Ti     0.8147   0.8479   0.2815
Ti1255     Ti     0.9021   0.9685   0.3147
Ti1256     Ti     0.9353   0.9685   0.3479
V1257     V     0.9414   0.875   0.4082
V1258     V     0.9082   0.875   0.4414
V1259     V     0.875   0.9414   0.4082
V1260     V     0.875   0.9082   0.4414
V1261     V     0.9082   0.9414   0.375
V1262     V     0.9414   0.9082   0.375
Ti1263     Ti     0.9353   0.9021   0.2815
Ti1264     Ti     0.9021   0.9353   0.2815
V1265     V     0.875   0.9082   0.3086
V1266     V     0.875   0.9414   0.3418
V1267     V     0.8086   0.9082   0.375
V1268     V     0.8418   0.9414   0.375
V1269     V     0.8418   0.875   0.3086
V1270     V     0.8086   0.875   0.3418
Ti1271     Ti     0.9021   0.7815   0.4353
Ti1272     Ti     0.9353   0.7815   0.4021
V1273     V     0.9414   0.875   0.3418
V1274     V     0.9082   0.875   0.3086
V1275     V     0.875   0.8418   0.3086
V1276     V     0.875   0.8086   0.3418
V1277     V     0.9414   0.8418   0.375
V1278     V     0.9082   0.8086   0.375
Ti1279     Ti     0.8479   0.9353   0.4685
Ti1280     Ti     0.8147   0.9021   0.4685
Ti1281     Ti     0.7815   0.8479   0.3147
Ti1282     Ti     0.7815   0.8147   0.3479
V1283     V     0.8418   0.875   0.4414
V1284     V     0.8086   0.875   0.4082
V1285     V     0.875   0.8418   0.4414
V1286     V     0.875   0.8086   0.4082
V1287     V     0.8086   0.8418   0.375
V1288     V     0.8418   0.8086   0.375
O1289     O     0.9449   0.5099   0.626
F1290     F     0.9025   0.4952   0.64
H1291     H     0.8848   0.5353   0.6232
Li1292     Li     0.9269   0.5495   0.6081
H1293     H     0.8768   0.4647   0.6152
Li1294     Li     0.8919   0.4505   0.5731
O1295     O     0.874   0.4901   0.5551
F1296     F     0.86   0.5048   0.5975
O1297     O     0.376   0.6949   0.4901
F1298     F     0.39   0.6525   0.5048
H1299     H     0.3732   0.6348   0.4647
Li1300     Li     0.3581   0.6769   0.4505
O1301     O     0.3051   0.624   0.5099
F1302     F     0.3475   0.61   0.4952
H1303     H     0.3652   0.6268   0.5353
Li1304     Li     0.3231   0.6419   0.5495
H1305     H     0.4647   0.8768   0.6152
Li1306     Li     0.4505   0.8919   0.5731
O1307     O     0.4901   0.874   0.5551
F1308     F     0.5048   0.86   0.5975
O1309     O     0.5099   0.9449   0.626
F1310     F     0.4952   0.9025   0.64
H1311     H     0.5353   0.8848   0.6232
Li1312     Li     0.5495   0.9269   0.6081
O1313     O     0.626   0.5099   0.9449
F1314     F     0.64   0.4952   0.9025
H1315     H     0.6232   0.5353   0.8848
Li1316     Li     0.6081   0.5495   0.9269
H1317     H     0.6152   0.4647   0.8768
Li1318     Li     0.5731   0.4505   0.8919
O1319     O     0.5551   0.4901   0.874
F1320     F     0.5975   0.5048   0.86
H1321     H     0.4647   0.6152   0.8768
Li1322     Li     0.4505   0.5731   0.8919
O1323     O     0.4901   0.5551   0.874
F1324     F     0.5048   0.5975   0.86
O1325     O     0.5099   0.626   0.9449
F1326     F     0.4952   0.64   0.9025
H1327     H     0.5353   0.6232   0.8848
Li1328     Li     0.5495   0.6081   0.9269
H1329     H     0.6152   0.8768   0.4647
Li1330     Li     0.5731   0.8919   0.4505
O1331     O     0.5551   0.874   0.4901
F1332     F     0.5975   0.86   0.5048
O1333     O     0.626   0.9449   0.5099
F1334     F     0.64   0.9025   0.4952
H1335     H     0.6232   0.8848   0.5353
Li1336     Li     0.6081   0.9269   0.5495
O1337     O     0.6949   0.4901   0.376
F1338     F     0.6525   0.5048   0.39
H1339     H     0.6348   0.4647   0.3732
Li1340     Li     0.6769   0.4505   0.3581
O1341     O     0.624   0.5099   0.3051
F1342     F     0.61   0.4952   0.3475
H1343     H     0.6268   0.5353   0.3652
Li1344     Li     0.6419   0.5495   0.3231
O1345     O     0.4901   0.6949   0.376
F1346     F     0.5048   0.6525   0.39
H1347     H     0.4647   0.6348   0.3732
Li1348     Li     0.4505   0.6769   0.3581
O1349     O     0.5099   0.624   0.3051
F1350     F     0.4952   0.61   0.3475
H1351     H     0.5353   0.6268   0.3652
Li1352     Li     0.5495   0.6419   0.3231
O1353     O     0.4901   0.376   0.6949
F1354     F     0.5048   0.39   0.6525
H1355     H     0.4647   0.3732   0.6348
Li1356     Li     0.4505   0.3581   0.6769
O1357     O     0.5099   0.3051   0.624
F1358     F     0.4952   0.3475   0.61
H1359     H     0.5353   0.3652   0.6268
Li1360     Li     0.5495   0.3231   0.6419
O1361     O     0.6949   0.376   0.4901
F1362     F     0.6525   0.39   0.5048
H1363     H     0.6348   0.3732   0.4647
Li1364     Li     0.6769   0.3581   0.4505
O1365     O     0.624   0.3051   0.5099
F1366     F     0.61   0.3475   0.4952
H1367     H     0.6268   0.3652   0.5353
Li1368     Li     0.6419   0.3231   0.5495
O1369     O     0.376   0.4901   0.6949
F1370     F     0.39   0.5048   0.6525
H1371     H     0.3732   0.4647   0.6348
Li1372     Li     0.3581   0.4505   0.6769
O1373     O     0.3051   0.5099   0.624
F1374     F     0.3475   0.4952   0.61
H1375     H     0.3652   0.5353   0.6268
Li1376     Li     0.3231   0.5495   0.6419
O1377     O     0.7401   0.3051   0.626
F1378     F     0.7548   0.3475   0.64
H1379     H     0.7147   0.3652   0.6232
Li1380     Li     0.7005   0.3231   0.6081
O1381     O     0.7599   0.376   0.5551
F1382     F     0.7452   0.39   0.5975
H1383     H     0.7853   0.3732   0.6152
Li1384     Li     0.7995   0.3581   0.5731
O1385     O     0.626   0.7401   0.3051
F1386     F     0.64   0.7548   0.3475
H1387     H     0.6232   0.7147   0.3652
Li1388     Li     0.6081   0.7005   0.3231
O1389     O     0.5551   0.7599   0.376
F1390     F     0.5975   0.7452   0.39
H1391     H     0.6152   0.7853   0.3732
Li1392     Li     0.5731   0.7995   0.3581
O1393     O     0.3051   0.626   0.7401
F1394     F     0.3475   0.64   0.7548
H1395     H     0.3652   0.6232   0.7147
Li1396     Li     0.3231   0.6081   0.7005
O1397     O     0.376   0.5551   0.7599
F1398     F     0.39   0.5975   0.7452
H1399     H     0.3732   0.6152   0.7853
Li1400     Li     0.3581   0.5731   0.7995
O1401     O     0.874   0.6949   0.7599
F1402     F     0.86   0.6525   0.7452
H1403     H     0.8768   0.6348   0.7853
Li1404     Li     0.8919   0.6769   0.7995
H1405     H     0.8848   0.6268   0.7147
Li1406     Li     0.9269   0.6419   0.7005
O1407     O     0.9449   0.624   0.7401
F1408     F     0.9025   0.61   0.7548
O1409     O     0.7599   0.874   0.6949
F1410     F     0.7452   0.86   0.6525
H1411     H     0.7853   0.8768   0.6348
Li1412     Li     0.7995   0.8919   0.6769
H1413     H     0.7147   0.8848   0.6268
Li1414     Li     0.7005   0.9269   0.6419
O1415     O     0.7401   0.9449   0.624
F1416     F     0.7548   0.9025   0.61
O1417     O     0.6949   0.7599   0.874
F1418     F     0.6525   0.7452   0.86
H1419     H     0.6348   0.7853   0.8768
Li1420     Li     0.6769   0.7995   0.8919
H1421     H     0.6268   0.7147   0.8848
Li1422     Li     0.6419   0.7005   0.9269
O1423     O     0.624   0.7401   0.9449
F1424     F     0.61   0.7548   0.9025
S1425     S     0.5714   0.7411   0.4757
Ce1426     Ce     0.5286   0.7547   0.462
S1427     S     0.7411   0.4757   0.5714
Ce1428     Ce     0.7547   0.462   0.5286
S1429     S     0.5089   0.5714   0.7743
Ce1430     Ce     0.4953   0.5286   0.788
S1431     S     0.7743   0.5089   0.5714
Ce1432     Ce     0.788   0.4953   0.5286
S1433     S     0.7743   0.5714   0.5089
Ce1434     Ce     0.788   0.5286   0.4953
S1435     S     0.6786   0.5089   0.4757
Ce1436     Ce     0.7214   0.4953   0.462
S1437     S     0.4757   0.5714   0.7411
Ce1438     Ce     0.462   0.5286   0.7547
S1439     S     0.6786   0.4757   0.5089
Ce1440     Ce     0.7214   0.462   0.4953
S1441     S     0.5714   0.4757   0.7411
Ce1442     Ce     0.5286   0.462   0.7547
S1443     S     0.5089   0.6786   0.4757
Ce1444     Ce     0.4953   0.7214   0.462
S1445     S     0.7411   0.5714   0.4757
Ce1446     Ce     0.7547   0.5286   0.462
S1447     S     0.4757   0.5089   0.6786
Ce1448     Ce     0.462   0.4953   0.7214
S1449     S     0.4757   0.7411   0.5714
Ce1450     Ce     0.462   0.7547   0.5286
S1451     S     0.6786   0.7411   0.7743
Ce1452     Ce     0.7214   0.7547   0.788
S1453     S     0.7411   0.6786   0.7743
Ce1454     Ce     0.7547   0.7214   0.788
S1455     S     0.5714   0.7743   0.5089
Ce1456     Ce     0.5286   0.788   0.4953
S1457     S     0.6786   0.7743   0.7411
Ce1458     Ce     0.7214   0.788   0.7547
S1459     S     0.7743   0.7411   0.6786
Ce1460     Ce     0.788   0.7547   0.7214
S1461     S     0.7743   0.6786   0.7411
Ce1462     Ce     0.788   0.7214   0.7547
S1463     S     0.7411   0.7743   0.6786
Ce1464     Ce     0.7547   0.788   0.7214
S1465     S     0.5089   0.4757   0.6786
Ce1466     Ce     0.4953   0.462   0.7214
S1467     S     0.5714   0.5089   0.7743
Ce1468     Ce     0.5286   0.4953   0.788
S1469     S     0.5089   0.7743   0.5714
Ce1470     Ce     0.4953   0.788   0.5286
S1471     S     0.4757   0.6786   0.5089
Ce1472     Ce     0.462   0.7214   0.4953
Be1473     Be     0.9149   0.625   0.6582
He1474     He     0.8723   0.6111   0.6722
C1475     C     0.8297   0.625   0.6582
Be1476     Be     0.9149   0.6582   0.625
He1477     He     0.8723   0.6722   0.6111
C1478     C     0.8297   0.6582   0.625
Be1479     Be     0.625   0.6582   0.9149
He1480     He     0.6111   0.6722   0.8723
C1481     C     0.625   0.6582   0.8297
Be1482     Be     0.625   0.9149   0.6582
He1483     He     0.6111   0.8723   0.6722
C1484     C     0.625   0.8297   0.6582
Be1485     Be     0.6582   0.625   0.9149
He1486     He     0.6722   0.6111   0.8723
C1487     C     0.6582   0.625   0.8297
Be1488     Be     0.5918   0.3351   0.625
He1489     He     0.5778   0.3777   0.6111
C1490     C     0.5918   0.4203   0.625
Be1491     Be     0.625   0.3351   0.5918
He1492     He     0.6111   0.3777   0.5778
C1493     C     0.625   0.4203   0.5918
Be1494     Be     0.3351   0.5918   0.625
He1495     He     0.3777   0.5778   0.6111
C1496     C     0.4203   0.5918   0.625
Be1497     Be     0.625   0.5918   0.3351
He1498     He     0.6111   0.5778   0.3777
C1499     C     0.625   0.5918   0.4203
Be1500     Be     0.5918   0.625   0.3351
He1501     He     0.5778   0.6111   0.3777
C1502     C     0.5918   0.625   0.4203
Be1503     Be     0.3351   0.6582   0.625
He1504     He     0.3777   0.6722   0.6389
C1505     C     0.4203   0.6582   0.625
Be1506     Be     0.6582   0.3351   0.625
He1507     He     0.6722   0.3777   0.6389
C1508     C     0.6582   0.4203   0.625
Be1509     Be     0.625   0.6582   0.3351
He1510     He     0.6389   0.6722   0.3777
C1511     C     0.625   0.6582   0.4203
Be1512     Be     0.3351   0.625   0.6582
He1513     He     0.3777   0.6389   0.6722
C1514     C     0.4203   0.625   0.6582
Be1515     Be     0.5918   0.625   0.9149
He1516     He     0.5778   0.6389   0.8723
C1517     C     0.5918   0.625   0.8297
Be1518     Be     0.6582   0.9149   0.625
He1519     He     0.6722   0.8723   0.6111
C1520     C     0.6582   0.8297   0.625
Be1521     Be     0.9149   0.5918   0.625
He1522     He     0.8723   0.5778   0.6389
C1523     C     0.8297   0.5918   0.625
Be1524     Be     0.625   0.9149   0.5918
He1525     He     0.6389   0.8723   0.5778
C1526     C     0.625   0.8297   0.5918
Be1527     Be     0.3351   0.625   0.5918
He1528     He     0.3777   0.6111   0.5778
C1529     C     0.4203   0.625   0.5918
Be1530     Be     0.9149   0.625   0.5918
He1531     He     0.8723   0.6389   0.5778
C1532     C     0.8297   0.625   0.5918
Be1533     Be     0.5918   0.9149   0.625
He1534     He     0.5778   0.8723   0.6389
C1535     C     0.5918   0.8297   0.625
Be1536     Be     0.625   0.5918   0.9149
He1537     He     0.6389   0.5778   0.8723
C1538     C     0.625   0.5918   0.8297
Be1539     Be     0.625   0.3351   0.6582
He1540     He     0.6389   0.3777   0.6722
C1541     C     0.625   0.4203   0.6582
Be1542     Be     0.6582   0.625   0.3351
He1543     He     0.6722   0.6389   0.3777
C1544     C     0.6582   0.625   0.4203
N1545     N     0.5388   0.4173   0.7445
Ne1546     Ne     0.5811   0.4311   0.7296
N1547     N     0.5055   0.4173   0.7112
Ne1548     Ne     0.5204   0.4312   0.6689
B1549     B     0.563   0.4438   0.6538
B1550     B     0.5962   0.4438   0.687
N1551     N     0.4173   0.7445   0.5388
Ne1552     Ne     0.4312   0.7296   0.5811
N1553     N     0.4173   0.7112   0.5055
Ne1554     Ne     0.4312   0.6689   0.5204
B1555     B     0.4438   0.687   0.5962
B1556     B     0.4438   0.6538   0.563
N1557     N     0.7112   0.5055   0.4173
Ne1558     Ne     0.6689   0.5204   0.4312
N1559     N     0.7445   0.5388   0.4173
Ne1560     Ne     0.7296   0.5811   0.4311
B1561     B     0.6538   0.563   0.4438
B1562     B     0.687   0.5962   0.4438
N1563     N     0.7445   0.4173   0.5388
Ne1564     Ne     0.7296   0.4312   0.5811
N1565     N     0.7112   0.4173   0.5055
Ne1566     Ne     0.6689   0.4312   0.5204
B1567     B     0.6538   0.4438   0.563
B1568     B     0.687   0.4438   0.5962
N1569     N     0.5055   0.7112   0.4173
Ne1570     Ne     0.5204   0.6689   0.4312
N1571     N     0.5388   0.7445   0.4173
Ne1572     Ne     0.5811   0.7296   0.4312
B1573     B     0.563   0.6538   0.4438
B1574     B     0.5962   0.687   0.4438
N1575     N     0.4173   0.5388   0.7445
Ne1576     Ne     0.4312   0.5811   0.7296
N1577     N     0.4173   0.5055   0.7112
Ne1578     Ne     0.4312   0.5204   0.6689
B1579     B     0.4438   0.563   0.6538
B1580     B     0.4438   0.5962   0.687
N1581     N     0.5055   0.8327   0.5388
Ne1582     Ne     0.5204   0.8188   0.5811
N1583     N     0.5388   0.8327   0.5055
Ne1584     Ne     0.5811   0.8188   0.5204
B1585     B     0.5962   0.8062   0.563
B1586     B     0.563   0.8062   0.5962
N1587     N     0.8327   0.5055   0.5388
Ne1588     Ne     0.8188   0.5204   0.5811
N1589     N     0.8327   0.5388   0.5055
Ne1590     Ne     0.8188   0.5811   0.5204
B1591     B     0.8062   0.563   0.5962
B1592     B     0.8062   0.5962   0.563
N1593     N     0.8327   0.7445   0.7112
Ne1594     Ne     0.8188   0.7296   0.6689
N1595     N     0.8327   0.7112   0.7445
Ne1596     Ne     0.8188   0.6689   0.7296
B1597     B     0.8062   0.687   0.6538
B1598     B     0.8062   0.6538   0.687
N1599     N     0.5388   0.5055   0.8327
Ne1600     Ne     0.5811   0.5204   0.8189
N1601     N     0.5055   0.5388   0.8327
Ne1602     Ne     0.5204   0.5811   0.8188
B1603     B     0.563   0.5962   0.8062
B1604     B     0.5962   0.563   0.8062
N1605     N     0.7445   0.8327   0.7112
Ne1606     Ne     0.7296   0.8188   0.6689
N1607     N     0.7112   0.8327   0.7445
Ne1608     Ne     0.6689   0.8188   0.7296
B1609     B     0.6538   0.8062   0.687
B1610     B     0.687   0.8062   0.6538
N1611     N     0.7112   0.7445   0.8327
Ne1612     Ne     0.6689   0.7296   0.8188
N1613     N     0.7445   0.7112   0.8327
Ne1614     Ne     0.7296   0.6689   0.8188
B1615     B     0.687   0.6538   0.8062
B1616     B     0.6538   0.687   0.8062
Er1617     Er     0.552   0.5852   0.7619
Er1618     Er     0.5852   0.552   0.7619
Er1619     Er     0.698   0.6648   0.7619
Er1620     Er     0.6648   0.698   0.7619
Er1621     Er     0.5852   0.7619   0.552
Er1622     Er     0.552   0.7619   0.5852
Er1623     Er     0.7619   0.6648   0.698
Er1624     Er     0.7619   0.698   0.6648
Er1625     Er     0.7619   0.5852   0.552
Er1626     Er     0.7619   0.552   0.5852
Er1627     Er     0.698   0.7619   0.6648
Er1628     Er     0.6648   0.7619   0.698
Er1629     Er     0.552   0.6648   0.4881
Er1630     Er     0.5852   0.698   0.4881
Er1631     Er     0.698   0.5852   0.4881
Er1632     Er     0.6648   0.552   0.4881
Er1633     Er     0.4881   0.698   0.5852
Er1634     Er     0.4881   0.6648   0.552
Er1635     Er     0.5852   0.4881   0.698
Er1636     Er     0.552   0.4881   0.6648
Er1637     Er     0.6648   0.4881   0.552
Er1638     Er     0.698   0.4881   0.5852
Er1639     Er     0.4881   0.552   0.6648
Er1640     Er     0.4881   0.5852   0.698
Ti1641     Ti     0.7185   0.5979   0.5647
Ti1642     Ti     0.7185   0.5647   0.5979
Ti1643     Ti     0.6521   0.5315   0.5647
Ti1644     Ti     0.6853   0.5315   0.5979
Ti1645     Ti     0.5647   0.5979   0.7185
Ti1646     Ti     0.5979   0.5647   0.7185
V1647     V     0.6914   0.5918   0.625
V1648     V     0.6582   0.5586   0.625
V1649     V     0.625   0.5586   0.6582
V1650     V     0.625   0.5918   0.6914
V1651     V     0.6914   0.625   0.6582
V1652     V     0.6582   0.625   0.6914
Ti1653     Ti     0.6521   0.5647   0.5315
Ti1654     Ti     0.6853   0.5979   0.5315
Ti1655     Ti     0.6521   0.6853   0.7185
Ti1656     Ti     0.6853   0.6521   0.7185
Ti1657     Ti     0.5647   0.5315   0.6521
Ti1658     Ti     0.5979   0.5315   0.6853
Ti1659     Ti     0.5315   0.6521   0.5647
Ti1660     Ti     0.5315   0.6853   0.5979
V1661     V     0.625   0.5586   0.5918
V1662     V     0.625   0.5918   0.5586
V1663     V     0.5586   0.5918   0.625
V1664     V     0.5918   0.5586   0.625
V1665     V     0.5918   0.625   0.5586
V1666     V     0.5586   0.625   0.5918
Ti1667     Ti     0.7185   0.6853   0.6521
Ti1668     Ti     0.7185   0.6521   0.6853
Ti1669     Ti     0.5647   0.6521   0.5315
Ti1670     Ti     0.5979   0.6853   0.5315
Ti1671     Ti     0.6853   0.7185   0.6521
Ti1672     Ti     0.6521   0.7185   0.6853
Ti1673     Ti     0.5315   0.5647   0.6521
Ti1674     Ti     0.5315   0.5979   0.6853
V1675     V     0.6914   0.6582   0.625
V1676     V     0.6582   0.6914   0.625
V1677     V     0.6582   0.625   0.5586
V1678     V     0.6914   0.625   0.5918
V1679     V     0.625   0.6914   0.5918
V1680     V     0.625   0.6582   0.5586
Ti1681     Ti     0.5647   0.7185   0.5979
Ti1682     Ti     0.5979   0.7185   0.5647
V1683     V     0.625   0.6914   0.6582
V1684     V     0.625   0.6582   0.6914
V1685     V     0.5586   0.6582   0.625
V1686     V     0.5918   0.6914   0.625
V1687     V     0.5918   0.625   0.6914
V1688     V     0.5586   0.625   0.6582
O1689     O     0.9901   0.376   0.1949
F1690     F     0.0048   0.39   0.1525
H1691     H     0.9647   0.3732   0.1348
Li1692     Li     0.9505   0.3581   0.1769
O1693     O     0.0099   0.3051   0.124
F1694     F     0.9952   0.3475   0.11
H1695     H     0.0353   0.3652   0.1268
Li1696     Li     0.0495   0.3231   0.1419
O1697     O     0.1949   0.9901   0.376
F1698     F     0.1525   0.0048   0.39
H1699     H     0.1348   0.9647   0.3732
Li1700     Li     0.1769   0.9505   0.3581
O1701     O     0.124   0.0099   0.3051
F1702     F     0.11   0.9952   0.3475
H1703     H     0.1268   0.0353   0.3652
Li1704     Li     0.1419   0.0495   0.3231
O1705     O     0.1949   0.376   0.9901
F1706     F     0.1525   0.39   0.0048
H1707     H     0.1348   0.3732   0.9647
Li1708     Li     0.1769   0.3581   0.9505
O1709     O     0.124   0.3051   0.0099
F1710     F     0.11   0.3475   0.9952
H1711     H     0.1268   0.3652   0.0353
Li1712     Li     0.1419   0.3231   0.0495
O1713     O     0.9901   0.1949   0.376
F1714     F     0.0048   0.1525   0.39
H1715     H     0.9647   0.1348   0.3732
Li1716     Li     0.9505   0.1769   0.3581
O1717     O     0.0099   0.124   0.3051
F1718     F     0.9952   0.11   0.3475
H1719     H     0.0353   0.1268   0.3652
Li1720     Li     0.0495   0.1419   0.3231
H1721     H     0.1348   0.4647   0.8732
Li1722     Li     0.1769   0.4505   0.8581
O1723     O     0.1949   0.4901   0.876
F1724     F     0.1525   0.5048   0.89
H1725     H     0.1268   0.5353   0.8652
Li1726     Li     0.1419   0.5495   0.8231
O1727     O     0.124   0.5099   0.8051
F1728     F     0.11   0.4952   0.8475
H1729     H     0.4647   0.1348   0.8732
Li1730     Li     0.4505   0.1769   0.8581
O1731     O     0.4901   0.1949   0.876
F1732     F     0.5048   0.1525   0.89
H1733     H     0.5353   0.1268   0.8652
Li1734     Li     0.5495   0.1419   0.8231
O1735     O     0.5099   0.124   0.8051
F1736     F     0.4952   0.11   0.8475
H1737     H     0.4647   0.8732   0.1348
Li1738     Li     0.4505   0.8581   0.1769
O1739     O     0.4901   0.876   0.1949
F1740     F     0.5048   0.89   0.1525
H1741     H     0.5353   0.8652   0.1268
Li1742     Li     0.5495   0.8231   0.1419
O1743     O     0.5099   0.8051   0.124
F1744     F     0.4952   0.8475   0.11
H1745     H     0.8732   0.4647   0.1348
Li1746     Li     0.8581   0.4505   0.1769
O1747     O     0.876   0.4901   0.1949
F1748     F     0.89   0.5048   0.1525
H1749     H     0.8652   0.5353   0.1268
Li1750     Li     0.8231   0.5495   0.1419
O1751     O     0.8051   0.5099   0.124
F1752     F     0.8475   0.4952   0.11
H1753     H     0.3768   0.2853   0.6348
Li1754     Li     0.3919   0.2995   0.6769
O1755     O     0.374   0.2599   0.6949
F1756     F     0.36   0.2452   0.6525
O1757     O     0.4449   0.2401   0.624
F1758     F     0.4025   0.2548   0.61
H1759     H     0.3848   0.2147   0.6268
Li1760     Li     0.4269   0.2005   0.6419
H1761     H     0.7147   0.1232   0.8652
Li1762     Li     0.7005   0.1081   0.8231
O1763     O     0.7401   0.126   0.8051
F1764     F     0.7548   0.14   0.8475
H1765     H     0.7853   0.1152   0.8732
Li1766     Li     0.7995   0.0731   0.8581
O1767     O     0.7599   0.0551   0.876
F1768     F     0.7452   0.0975   0.89
O1769     O     0.626   0.2401   0.8051
F1770     F     0.64   0.2548   0.8475
H1771     H     0.6232   0.2147   0.8652
Li1772     Li     0.6081   0.2005   0.8231
H1773     H     0.6152   0.2853   0.8732
Li1774     Li     0.5731   0.2995   0.8581
O1775     O     0.5551   0.2599   0.876
F1776     F     0.5975   0.2452   0.89
S1777     S     0.0243   0.4911   0.8214
Ce1778     Ce     0.038   0.5047   0.7786
S1779     S     0.8214   0.2589   0.7257
Ce1780     Ce     0.7786   0.2453   0.712
S1781     S     0.7257   0.2589   0.8214
Ce1782     Ce     0.7121   0.2453   0.7786
S1783     S     0.7257   0.4911   0.9286
Ce1784     Ce     0.7121   0.5047   0.9714
S1785     S     0.8214   0.5243   0.9911
Ce1786     Ce     0.7786   0.5379   0.0047
S1787     S     0.9286   0.5243   0.7589
Ce1788     Ce     0.9714   0.538   0.7453
S1789     S     0.7589   0.2257   0.8214
Ce1790     Ce     0.7453   0.212   0.7786
S1791     S     0.9286   0.2257   0.9911
Ce1792     Ce     0.9714   0.212   0.0047
S1793     S     0.8214   0.2257   0.7589
Ce1794     Ce     0.7786   0.212   0.7453
S1795     S     0.0243   0.2589   0.9286
Ce1796     Ce     0.038   0.2453   0.9714
S1797     S     0.0243   0.4286   0.7589
Ce1798     Ce     0.0379   0.4714   0.7453
S1799     S     0.9286   0.2589   0.0243
Ce1800     Ce     0.9714   0.2453   0.0379
S1801     S     0.7257   0.4286   0.9911
Ce1802     Ce     0.712   0.4714   0.0047
S1803     S     0.7589   0.5243   0.9286
Ce1804     Ce     0.7453   0.538   0.9714
S1805     S     0.8214   0.4911   0.0243
Ce1806     Ce     0.7786   0.5047   0.038
S1807     S     0.7589   0.4286   0.0243
Ce1808     Ce     0.7453   0.4714   0.038
S1809     S     0.9286   0.4911   0.7257
Ce1810     Ce     0.9714   0.5047   0.712
S1811     S     0.7257   0.3214   0.7589
Ce1812     Ce     0.712   0.2786   0.7453
S1813     S     0.7589   0.3214   0.7257
Ce1814     Ce     0.7453   0.2786   0.7121
S1815     S     0.9911   0.4286   0.7257
Ce1816     Ce     0.0047   0.4714   0.7121
S1817     S     0.9911   0.3214   0.0243
Ce1818     Ce     0.0047   0.2786   0.038
S1819     S     0.9911   0.5243   0.8214
Ce1820     Ce     0.0047   0.538   0.7786
S1821     S     0.0243   0.3214   0.9911
Ce1822     Ce     0.038   0.2786   0.0047
S1823     S     0.9911   0.2257   0.9286
Ce1824     Ce     0.0047   0.212   0.9714
Be1825     Be     0.875   0.6649   0.8418
He1826     He     0.8611   0.6223   0.8278
C1827     C     0.875   0.5797   0.8418
Be1828     Be     0.8418   0.6649   0.875
He1829     He     0.8278   0.6223   0.8611
C1830     C     0.8418   0.5797   0.875
Be1831     Be     0.9082   0.375   0.5851
He1832     He     0.9222   0.3611   0.6277
C1833     C     0.9082   0.375   0.6703
Be1834     Be     0.5851   0.375   0.9082
He1835     He     0.6277   0.3611   0.9222
C1836     C     0.6703   0.375   0.9082
Be1837     Be     0.875   0.6649   0.9082
He1838     He     0.8889   0.6223   0.9222
C1839     C     0.875   0.5797   0.9082
Be1840     Be     0.9082   0.6649   0.875
He1841     He     0.9222   0.6223   0.8889
C1842     C     0.9082   0.5797   0.875
Be1843     Be     0.1649   0.375   0.9082
He1844     He     0.1223   0.3889   0.9222
C1845     C     0.0797   0.375   0.9082
Be1846     Be     0.9082   0.375   0.1649
He1847     He     0.9222   0.3889   0.1223
C1848     C     0.9082   0.375   0.0797
Be1849     Be     0.1649   0.3418   0.875
He1850     He     0.1223   0.3278   0.8611
C1851     C     0.0797   0.3418   0.875
Be1852     Be     0.1649   0.375   0.8418
He1853     He     0.1223   0.3611   0.8278
C1854     C     0.0797   0.375   0.8418
Be1855     Be     0.875   0.3418   0.1649
He1856     He     0.8611   0.3278   0.1223
C1857     C     0.875   0.3418   0.0797
Be1858     Be     0.9082   0.0851   0.875
He1859     He     0.9222   0.1277   0.8611
C1860     C     0.9082   0.1703   0.875
Be1861     Be     0.5851   0.4082   0.875
He1862     He     0.6277   0.4222   0.8611
C1863     C     0.6703   0.4082   0.875
Be1864     Be     0.8418   0.375   0.5851
He1865     He     0.8278   0.3889   0.6277
C1866     C     0.8418   0.375   0.6703
Be1867     Be     0.5851   0.375   0.8418
He1868     He     0.6277   0.3889   0.8278
C1869     C     0.6703   0.375   0.8418
Be1870     Be     0.8418   0.375   0.1649
He1871     He     0.8278   0.3611   0.1223
C1872     C     0.8418   0.375   0.0797
Be1873     Be     0.8418   0.0851   0.875
He1874     He     0.8278   0.1277   0.8889
C1875     C     0.8418   0.1703   0.875
Be1876     Be     0.875   0.0851   0.9082
He1877     He     0.8611   0.1277   0.9222
C1878     C     0.875   0.1703   0.9082
Be1879     Be     0.875   0.0851   0.8418
He1880     He     0.8889   0.1277   0.8278
C1881     C     0.875   0.1703   0.8418
Be1882     Be     0.5851   0.3418   0.875
He1883     He     0.6277   0.3278   0.8889
C1884     C     0.6703   0.3418   0.875
Be1885     Be     0.875   0.4082   0.5851
He1886     He     0.8611   0.4222   0.6277
C1887     C     0.875   0.4082   0.6703
Be1888     Be     0.875   0.3418   0.5851
He1889     He     0.8889   0.3278   0.6277
C1890     C     0.875   0.3418   0.6703
Be1891     Be     0.1649   0.4082   0.875
He1892     He     0.1223   0.4222   0.8889
C1893     C     0.0797   0.4082   0.875
Be1894     Be     0.875   0.4082   0.1649
He1895     He     0.8889   0.4222   0.1223
C1896     C     0.875   0.4082   0.0797
N1897     N     0.9945   0.2888   0.0827
Ne1898     Ne     0.9796   0.3311   0.0688
N1899     N     0.9612   0.2555   0.0827
Ne1900     Ne     0.9189   0.2704   0.0688
B1901     B     0.9038   0.313   0.0562
B1902     B     0.937   0.3462   0.0562
N1903     N     0.9945   0.1673   0.9612
Ne1904     Ne     0.9796   0.1811   0.9189
N1905     N     0.9612   0.1673   0.9945
Ne1906     Ne     0.9189   0.1812   0.9796
B1907     B     0.9038   0.1938   0.937
B1908     B     0.937   0.1938   0.9038
N1909     N     0.7888   0.5827   0.9945
Ne1910     Ne     0.8311   0.5689   0.9796
N1911     N     0.7555   0.5827   0.9612
Ne1912     Ne     0.7704   0.5689   0.9189
B1913     B     0.813   0.5562   0.9038
B1914     B     0.8462   0.5562   0.937
N1915     N     0.0827   0.2888   0.9945
Ne1916     Ne     0.0688   0.3311   0.9796
N1917     N     0.0827   0.2555   0.9612
Ne1918     Ne     0.0688   0.2704   0.9189
B1919     B     0.0562   0.313   0.9038
B1920     B     0.0562   0.3462   0.937
N1921     N     0.7888   0.4945   0.0827
Ne1922     Ne     0.8311   0.4796   0.0688
N1923     N     0.7555   0.4612   0.0827
Ne1924     Ne     0.7704   0.4189   0.0688
B1925     B     0.813   0.4038   0.0562
B1926     B     0.8462   0.437   0.0562
N1927     N     0.9612   0.5827   0.7555
Ne1928     Ne     0.9189   0.5689   0.7704
N1929     N     0.9945   0.5827   0.7888
Ne1930     Ne     0.9796   0.5689   0.8311
B1931     B     0.9038   0.5562   0.813
B1932     B     0.937   0.5562   0.8462
N1933     N     0.0827   0.4945   0.7888
Ne1934     Ne     0.0688   0.4796   0.8311
N1935     N     0.0827   0.4612   0.7555
Ne1936     Ne     0.0688   0.4189   0.7704
B1937     B     0.0562   0.4038   0.813
B1938     B     0.0562   0.437   0.8462
N1939     N     0.7555   0.1673   0.7888
Ne1940     Ne     0.7704   0.1811   0.8311
N1941     N     0.7888   0.1673   0.7555
Ne1942     Ne     0.8311   0.1812   0.7704
B1943     B     0.813   0.1938   0.8462
B1944     B     0.8462   0.1938   0.813
N1945     N     0.9612   0.4945   0.6673
Ne1946     Ne     0.9189   0.4796   0.6811
N1947     N     0.9945   0.4612   0.6673
Ne1948     Ne     0.9796   0.4189   0.6812
B1949     B     0.9038   0.437   0.6938
B1950     B     0.937   0.4038   0.6938
N1951     N     0.6673   0.4945   0.9612
Ne1952     Ne     0.6811   0.4796   0.9189
N1953     N     0.6673   0.4612   0.9945
Ne1954     Ne     0.6812   0.4189   0.9796
B1955     B     0.6938   0.437   0.9038
B1956     B     0.6938   0.4038   0.937
N1957     N     0.6673   0.2555   0.7888
Ne1958     Ne     0.6811   0.2704   0.8311
N1959     N     0.6673   0.2888   0.7555
Ne1960     Ne     0.6812   0.3311   0.7704
B1961     B     0.6938   0.3462   0.813
B1962     B     0.6938   0.313   0.8462
N1963     N     0.7555   0.2888   0.6673
Ne1964     Ne     0.7704   0.3311   0.6811
N1965     N     0.7888   0.2555   0.6673
Ne1966     Ne     0.8311   0.2704   0.6812
B1967     B     0.813   0.3462   0.6938
B1968     B     0.8462   0.313   0.6938
Er1969     Er     0.9148   0.302   0.0119
Er1970     Er     0.948   0.3352   0.0119
Er1971     Er     0.0119   0.302   0.9148
Er1972     Er     0.0119   0.3352   0.948
Er1973     Er     0.802   0.4148   0.0119
Er1974     Er     0.8352   0.448   0.0119
Er1975     Er     0.0119   0.448   0.8352
Er1976     Er     0.0119   0.4148   0.802
Er1977     Er     0.948   0.2381   0.9148
Er1978     Er     0.9148   0.2381   0.948
Er1979     Er     0.7381   0.448   0.9148
Er1980     Er     0.7381   0.4148   0.948
Er1981     Er     0.9148   0.448   0.7381
Er1982     Er     0.948   0.4148   0.7381
Er1983     Er     0.802   0.2381   0.8352
Er1984     Er     0.8352   0.2381   0.802
Er1985     Er     0.9148   0.5119   0.802
Er1986     Er     0.948   0.5119   0.8352
Er1987     Er     0.802   0.3352   0.7381
Er1988     Er     0.8352   0.302   0.7381
Er1989     Er     0.7381   0.3352   0.802
Er1990     Er     0.7381   0.302   0.8352
Er1991     Er     0.802   0.5119   0.9148
Er1992     Er     0.8352   0.5119   0.948
V1993     V     0.875   0.4082   0.8086
V1994     V     0.875   0.4414   0.8418
V1995     V     0.8086   0.4082   0.875
V1996     V     0.8418   0.4414   0.875
V1997     V     0.8418   0.375   0.8086
V1998     V     0.8086   0.375   0.8418
Ti1999     Ti     0.8479   0.3147   0.7815
Ti2000     Ti     0.8147   0.3479   0.7815
Ti2001     Ti     0.8479   0.4685   0.9353
Ti2002     Ti     0.8147   0.4685   0.9021
Ti2003     Ti     0.7815   0.4021   0.9353
Ti2004     Ti     0.7815   0.4353   0.9021
Ti2005     Ti     0.9353   0.3479   0.9685
Ti2006     Ti     0.9021   0.3147   0.9685
Ti2007     Ti     0.9353   0.4685   0.8479
Ti2008     Ti     0.9021   0.4685   0.8147
Ti2009     Ti     0.9685   0.3147   0.9021
Ti2010     Ti     0.9685   0.3479   0.9353
V2011     V     0.9414   0.4082   0.875
V2012     V     0.9082   0.4414   0.875
V2013     V     0.875   0.4082   0.9414
V2014     V     0.875   0.4414   0.9082
V2015     V     0.9414   0.375   0.9082
V2016     V     0.9082   0.375   0.9414
Ti2017     Ti     0.7815   0.3147   0.8479
Ti2018     Ti     0.7815   0.3479   0.8147
Ti2019     Ti     0.9353   0.4021   0.7815
Ti2020     Ti     0.9021   0.4353   0.7815
Ti2021     Ti     0.9685   0.4353   0.8479
Ti2022     Ti     0.9685   0.4021   0.8147
Ti2023     Ti     0.8147   0.4021   0.9685
Ti2024     Ti     0.8479   0.4353   0.9685
V2025     V     0.8418   0.375   0.9414
V2026     V     0.8086   0.375   0.9082
V2027     V     0.875   0.3418   0.9414
V2028     V     0.875   0.3086   0.9082
V2029     V     0.8418   0.3086   0.875
V2030     V     0.8086   0.3418   0.875
Ti2031     Ti     0.8479   0.2815   0.8147
Ti2032     Ti     0.8147   0.2815   0.8479
Ti2033     Ti     0.9353   0.2815   0.9021
Ti2034     Ti     0.9021   0.2815   0.9353
V2035     V     0.9082   0.3086   0.875
V2036     V     0.9414   0.3418   0.875
V2037     V     0.9414   0.375   0.8418
V2038     V     0.9082   0.375   0.8086
V2039     V     0.875   0.3086   0.8418
V2040     V     0.875   0.3418   0.8086
H2041     H     0.1232   0.8652   0.7147
Li2042     Li     0.1081   0.8231   0.7005
O2043     O     0.126   0.8051   0.7401
F2044     F     0.14   0.8475   0.7548
H2045     H     0.1152   0.8732   0.7853
Li2046     Li     0.0731   0.8581   0.7995
O2047     O     0.0551   0.876   0.7599
F2048     F     0.0975   0.89   0.7452
H2049     H     0.2147   0.8652   0.6232
Li2050     Li     0.2005   0.8231   0.6081
O2051     O     0.2401   0.8051   0.626
F2052     F     0.2548   0.8475   0.64
H2053     H     0.2853   0.8732   0.6152
Li2054     Li     0.2995   0.8581   0.5731
O2055     O     0.2599   0.876   0.5551
F2056     F     0.2452   0.89   0.5975
S2057     S     0.4911   0.8214   0.0243
Ce2058     Ce     0.5047   0.7786   0.038
S2059     S     0.2589   0.7257   0.8214
Ce2060     Ce     0.2453   0.712   0.7786
S2061     S     0.2589   0.8214   0.7257
Ce2062     Ce     0.2453   0.7786   0.7121
S2063     S     0.4911   0.9286   0.7257
Ce2064     Ce     0.5047   0.9714   0.7121
S2065     S     0.5243   0.7589   0.9286
Ce2066     Ce     0.538   0.7453   0.9714
S2067     S     0.5243   0.9911   0.8214
Ce2068     Ce     0.538   0.0047   0.7786
S2069     S     0.4286   0.7589   0.0243
Ce2070     Ce     0.4714   0.7453   0.0379
S2071     S     0.2257   0.8214   0.7589
Ce2072     Ce     0.212   0.7786   0.7453
S2073     S     0.2257   0.7589   0.8214
Ce2074     Ce     0.212   0.7453   0.7786
S2075     S     0.2589   0.0243   0.9286
Ce2076     Ce     0.2453   0.038   0.9714
S2077     S     0.5243   0.9286   0.7589
Ce2078     Ce     0.538   0.9714   0.7453
S2079     S     0.3214   0.9911   0.0243
Ce2080     Ce     0.2786   0.0047   0.038
S2081     S     0.4911   0.0243   0.8214
Ce2082     Ce     0.5047   0.038   0.7786
S2083     S     0.2257   0.9286   0.9911
Ce2084     Ce     0.212   0.9714   0.0047
S2085     S     0.3214   0.0243   0.9911
Ce2086     Ce     0.2786   0.038   0.0047
S2087     S     0.4286   0.0243   0.7589
Ce2088     Ce     0.4714   0.038   0.7453
S2089     S     0.2257   0.9911   0.9286
Ce2090     Ce     0.212   0.0047   0.9714
S2091     S     0.4911   0.7257   0.9286
Ce2092     Ce     0.5047   0.712   0.9714
S2093     S     0.4286   0.7257   0.9911
Ce2094     Ce     0.4714   0.7121   0.0047
S2095     S     0.3214   0.7257   0.7589
Ce2096     Ce     0.2786   0.7121   0.7453
S2097     S     0.3214   0.7589   0.7257
Ce2098     Ce     0.2786   0.7453   0.712
S2099     S     0.5243   0.8214   0.9911
Ce2100     Ce     0.538   0.7786   0.0047
S2101     S     0.2589   0.9286   0.0243
Ce2102     Ce     0.2453   0.9714   0.038
S2103     S     0.4286   0.9911   0.7257
Ce2104     Ce     0.4714   0.0047   0.712
Be2105     Be     0.6649   0.875   0.8418
He2106     He     0.6223   0.8611   0.8278
C2107     C     0.5797   0.875   0.8418
Be2108     Be     0.6649   0.8418   0.875
He2109     He     0.6223   0.8278   0.8611
C2110     C     0.5797   0.8418   0.875
Be2111     Be     0.375   0.5851   0.9082
He2112     He     0.3611   0.6277   0.9222
C2113     C     0.375   0.6703   0.9082
Be2114     Be     0.375   0.9082   0.5851
He2115     He     0.3611   0.9222   0.6277
C2116     C     0.375   0.9082   0.6703
Be2117     Be     0.6649   0.875   0.9082
He2118     He     0.6223   0.8889   0.9222
C2119     C     0.5797   0.875   0.9082
Be2120     Be     0.6649   0.9082   0.875
He2121     He     0.6223   0.9222   0.8889
C2122     C     0.5797   0.9082   0.875
Be2123     Be     0.375   0.1649   0.9082
He2124     He     0.3889   0.1223   0.9222
C2125     C     0.375   0.0797   0.9082
Be2126     Be     0.375   0.9082   0.1649
He2127     He     0.3889   0.9222   0.1223
C2128     C     0.375   0.9082   0.0797
Be2129     Be     0.3418   0.1649   0.875
He2130     He     0.3278   0.1223   0.8611
C2131     C     0.3418   0.0797   0.875
Be2132     Be     0.0851   0.875   0.9082
He2133     He     0.1277   0.8611   0.9222
C2134     C     0.1703   0.875   0.9082
Be2135     Be     0.3418   0.5851   0.875
He2136     He     0.3278   0.6277   0.8889
C2137     C     0.3418   0.6703   0.875
Be2138     Be     0.4082   0.5851   0.875
He2139     He     0.4222   0.6277   0.8611
C2140     C     0.4082   0.6703   0.875
Be2141     Be     0.375   0.8418   0.5851
He2142     He     0.3889   0.8278   0.6277
C2143     C     0.375   0.8418   0.6703
Be2144     Be     0.4082   0.875   0.5851
He2145     He     0.4222   0.8611   0.6277
C2146     C     0.4082   0.875   0.6703
Be2147     Be     0.375   0.5851   0.8418
He2148     He     0.3889   0.6277   0.8278
C2149     C     0.375   0.6703   0.8418
Be2150     Be     0.375   0.1649   0.8418
He2151     He     0.3611   0.1223   0.8278
C2152     C     0.375   0.0797   0.8418
Be2153     Be     0.3418   0.875   0.1649
He2154     He     0.3278   0.8611   0.1223
C2155     C     0.3418   0.875   0.0797
Be2156     Be     0.0851   0.9082   0.875
He2157     He     0.1277   0.9222   0.8611
C2158     C     0.1703   0.9082   0.875
Be2159     Be     0.0851   0.8418   0.875
He2160     He     0.1277   0.8278   0.8889
C2161     C     0.1703   0.8418   0.875
Be2162     Be     0.375   0.8418   0.1649
He2163     He     0.3611   0.8278   0.1223
C2164     C     0.375   0.8418   0.0797
Be2165     Be     0.3418   0.875   0.5851
He2166     He     0.3278   0.8889   0.6277
C2167     C     0.3418   0.875   0.6703
Be2168     Be     0.4082   0.1649   0.875
He2169     He     0.4222   0.1223   0.8889
C2170     C     0.4082   0.0797   0.875
Be2171     Be     0.4082   0.875   0.1649
He2172     He     0.4222   0.8889   0.1223
C2173     C     0.4082   0.875   0.0797
Be2174     Be     0.0851   0.875   0.8418
He2175     He     0.1277   0.8889   0.8278
C2176     C     0.1703   0.875   0.8418
N2177     N     0.2888   0.0827   0.9945
Ne2178     Ne     0.3311   0.0688   0.9796
N2179     N     0.2555   0.0827   0.9612
Ne2180     Ne     0.2704   0.0688   0.9189
B2181     B     0.313   0.0562   0.9038
B2182     B     0.3462   0.0562   0.937
N2183     N     0.1673   0.9612   0.9945
Ne2184     Ne     0.1811   0.9189   0.9796
N2185     N     0.1673   0.9945   0.9612
Ne2186     Ne     0.1812   0.9796   0.9189
B2187     B     0.1938   0.9038   0.937
B2188     B     0.1938   0.937   0.9038
N2189     N     0.5827   0.9945   0.7888
Ne2190     Ne     0.5689   0.9796   0.8311
N2191     N     0.5827   0.9612   0.7555
Ne2192     Ne     0.5688   0.9189   0.7704
B2193     B     0.5562   0.9038   0.813
B2194     B     0.5562   0.937   0.8462
N2195     N     0.2888   0.9945   0.0827
Ne2196     Ne     0.3311   0.9796   0.0688
N2197     N     0.2555   0.9612   0.0827
Ne2198     Ne     0.2704   0.9189   0.0688
B2199     B     0.313   0.9038   0.0562
B2200     B     0.3462   0.937   0.0562
N2201     N     0.4945   0.0827   0.7888
Ne2202     Ne     0.4796   0.0688   0.8311
N2203     N     0.4612   0.0827   0.7555
Ne2204     Ne     0.4189   0.0688   0.7704
B2205     B     0.4038   0.0562   0.813
B2206     B     0.437   0.0562   0.8462
N2207     N     0.4612   0.7555   0.0827
Ne2208     Ne     0.4189   0.7704   0.0688
N2209     N     0.4945   0.7888   0.0827
Ne2210     Ne     0.4796   0.8311   0.0688
B2211     B     0.437   0.8462   0.0562
B2212     B     0.4038   0.813   0.0562
N2213     N     0.5827   0.7888   0.9945
Ne2214     Ne     0.5689   0.8311   0.9796
N2215     N     0.5827   0.7555   0.9612
Ne2216     Ne     0.5689   0.7704   0.9189
B2217     B     0.5562   0.813   0.9038
B2218     B     0.5562   0.8462   0.937
N2219     N     0.1673   0.7888   0.7555
Ne2220     Ne     0.1811   0.8311   0.7704
N2221     N     0.1673   0.7555   0.7888
Ne2222     Ne     0.1812   0.7704   0.8311
B2223     B     0.1938   0.813   0.8462
B2224     B     0.1938   0.8462   0.813
N2225     N     0.4945   0.6673   0.9612
Ne2226     Ne     0.4796   0.6812   0.9189
N2227     N     0.4612   0.6673   0.9945
Ne2228     Ne     0.4189   0.6812   0.9796
B2229     B     0.437   0.6938   0.9038
B2230     B     0.4038   0.6938   0.937
N2231     N     0.4612   0.9945   0.6673
Ne2232     Ne     0.4189   0.9796   0.6811
N2233     N     0.4945   0.9612   0.6673
Ne2234     Ne     0.4796   0.9189   0.6812
B2235     B     0.437   0.9038   0.6938
B2236     B     0.4038   0.937   0.6938
N2237     N     0.2888   0.6673   0.7555
Ne2238     Ne     0.3311   0.6811   0.7704
N2239     N     0.2555   0.6673   0.7888
Ne2240     Ne     0.2704   0.6812   0.8311
B2241     B     0.313   0.6938   0.8462
B2242     B     0.3462   0.6938   0.813
N2243     N     0.2555   0.7888   0.6673
Ne2244     Ne     0.2704   0.8311   0.6811
N2245     N     0.2888   0.7555   0.6673
Ne2246     Ne     0.3311   0.7704   0.6812
B2247     B     0.3462   0.813   0.6938
B2248     B     0.313   0.8462   0.6938
Er2249     Er     0.3352   0.948   0.0119
Er2250     Er     0.302   0.9148   0.0119
Er2251     Er     0.302   0.0119   0.9148
Er2252     Er     0.3352   0.0119   0.948
Er2253     Er     0.4148   0.0119   0.802
Er2254     Er     0.448   0.0119   0.8352
Er2255     Er     0.4148   0.802   0.0119
Er2256     Er     0.448   0.8352   0.0119
Er2257     Er     0.2381   0.948   0.9148
Er2258     Er     0.2381   0.9148   0.948
Er2259     Er     0.448   0.9148   0.7381
Er2260     Er     0.4148   0.948   0.7381
Er2261     Er     0.448   0.7381   0.9148
Er2262     Er     0.4148   0.7381   0.948
Er2263     Er     0.2381   0.8352   0.802
Er2264     Er     0.2381   0.802   0.8352
Er2265     Er     0.5119   0.802   0.9148
Er2266     Er     0.5119   0.8352   0.948
Er2267     Er     0.3352   0.7381   0.802
Er2268     Er     0.302   0.7381   0.8352
Er2269     Er     0.302   0.8352   0.7381
Er2270     Er     0.3352   0.802   0.7381
Er2271     Er     0.5119   0.9148   0.802
Er2272     Er     0.5119   0.948   0.8352
V2273     V     0.4082   0.8086   0.875
V2274     V     0.4414   0.8418   0.875
V2275     V     0.4414   0.875   0.8418
V2276     V     0.4082   0.875   0.8086
V2277     V     0.375   0.8418   0.8086
V2278     V     0.375   0.8086   0.8418
Ti2279     Ti     0.4685   0.9353   0.8479
Ti2280     Ti     0.4685   0.9021   0.8147
Ti2281     Ti     0.4685   0.8479   0.9353
Ti2282     Ti     0.4685   0.8147   0.9021
V2283     V     0.4082   0.9414   0.875
V2284     V     0.4414   0.9082   0.875
V2285     V     0.4082   0.875   0.9414
V2286     V     0.4414   0.875   0.9082
V2287     V     0.375   0.9414   0.9082
V2288     V     0.375   0.9082   0.9414
Ti2289     Ti     0.4353   0.8479   0.9685
Ti2290     Ti     0.4021   0.8147   0.9685
Ti2291     Ti     0.3147   0.7815   0.8479
Ti2292     Ti     0.3479   0.7815   0.8147
Ti2293     Ti     0.3479   0.9685   0.9353
Ti2294     Ti     0.3147   0.9685   0.9021
Ti2295     Ti     0.3147   0.8479   0.7815
Ti2296     Ti     0.3479   0.8147   0.7815
Ti2297     Ti     0.4021   0.7815   0.9353
Ti2298     Ti     0.4353   0.7815   0.9021
Ti2299     Ti     0.4021   0.9685   0.8147
Ti2300     Ti     0.4353   0.9685   0.8479
Ti2301     Ti     0.4353   0.9021   0.7815
Ti2302     Ti     0.4021   0.9353   0.7815
V2303     V     0.375   0.9082   0.8086
V2304     V     0.375   0.9414   0.8418
V2305     V     0.3418   0.9414   0.875
V2306     V     0.3086   0.9082   0.875
V2307     V     0.3418   0.875   0.8086
V2308     V     0.3086   0.875   0.8418
Ti2309     Ti     0.3479   0.9353   0.9685
Ti2310     Ti     0.3147   0.9021   0.9685
Ti2311     Ti     0.2815   0.9021   0.9353
Ti2312     Ti     0.2815   0.9353   0.9021
Ti2313     Ti     0.2815   0.8147   0.8479
Ti2314     Ti     0.2815   0.8479   0.8147
V2315     V     0.3418   0.875   0.9414
V2316     V     0.3086   0.875   0.9082
V2317     V     0.375   0.8418   0.9414
V2318     V     0.375   0.8086   0.9082
V2319     V     0.3086   0.8418   0.875
V2320     V     0.3418   0.8086   0.875
H2321     H     0.3848   0.6268   0.2147
Li2322     Li     0.4269   0.6419   0.2005
O2323     O     0.4449   0.624   0.2401
F2324     F     0.4025   0.61   0.2548
O2325     O     0.374   0.6949   0.2599
F2326     F     0.36   0.6525   0.2452
H2327     H     0.3768   0.6348   0.2853
Li2328     Li     0.3919   0.6769   0.2995
O2329     O     0.2599   0.374   0.6949
F2330     F     0.2452   0.36   0.6525
H2331     H     0.2853   0.3768   0.6348
Li2332     Li     0.2995   0.3919   0.6769
H2333     H     0.2147   0.3848   0.6268
Li2334     Li     0.2005   0.4269   0.6419
O2335     O     0.2401   0.4449   0.624
F2336     F     0.2548   0.4025   0.61
O2337     O     0.2401   0.3051   0.126
F2338     F     0.2548   0.3475   0.14
H2339     H     0.2147   0.3652   0.1232
Li2340     Li     0.2005   0.3231   0.1081
O2341     O     0.2599   0.376   0.0551
F2342     F     0.2452   0.39   0.0975
H2343     H     0.2853   0.3732   0.1152
Li2344     Li     0.2995   0.3581   0.0731
S2345     S     0.5243   0.4286   0.2589
Ce2346     Ce     0.538   0.4714   0.2453
S2347     S     0.4286   0.2589   0.5243
Ce2348     Ce     0.4714   0.2453   0.538
S2349     S     0.2589   0.5243   0.4286
Ce2350     Ce     0.2453   0.538   0.4714
S2351     S     0.4911   0.3214   0.5243
Ce2352     Ce     0.5047   0.2786   0.538
S2353     S     0.3214   0.5243   0.4911
Ce2354     Ce     0.2786   0.5379   0.5047
S2355     S     0.5243   0.4911   0.3214
Ce2356     Ce     0.538   0.5047   0.2786
S2357     S     0.4911   0.4286   0.2257
Ce2358     Ce     0.5047   0.4714   0.212
S2359     S     0.2257   0.4911   0.4286
Ce2360     Ce     0.212   0.5047   0.4714
S2361     S     0.4286   0.2257   0.4911
Ce2362     Ce     0.4714   0.212   0.5047
S2363     S     0.4911   0.2257   0.4286
Ce2364     Ce     0.5047   0.212   0.4714
S2365     S     0.4286   0.4911   0.2257
Ce2366     Ce     0.4714   0.5047   0.2121
S2367     S     0.2257   0.4286   0.4911
Ce2368     Ce     0.212   0.4714   0.5047
S2369     S     0.5243   0.2589   0.4286
Ce2370     Ce     0.538   0.2453   0.4714
S2371     S     0.3214   0.2589   0.2257
Ce2372     Ce     0.2786   0.2453   0.212
S2373     S     0.2257   0.3214   0.2589
Ce2374     Ce     0.212   0.2786   0.2453
S2375     S     0.2589   0.2257   0.3214
Ce2376     Ce     0.2453   0.212   0.2786
S2377     S     0.2589   0.3214   0.2257
Ce2378     Ce     0.2453   0.2786   0.212
S2379     S     0.3214   0.2257   0.2589
Ce2380     Ce     0.2786   0.212   0.2453
S2381     S     0.2257   0.2589   0.3214
Ce2382     Ce     0.212   0.2453   0.2786
S2383     S     0.5243   0.3214   0.4911
Ce2384     Ce     0.538   0.2786   0.5047
S2385     S     0.3214   0.4911   0.5243
Ce2386     Ce     0.2786   0.5047   0.538
S2387     S     0.4911   0.5243   0.3214
Ce2388     Ce     0.5047   0.538   0.2786
S2389     S     0.2589   0.4286   0.5243
Ce2390     Ce     0.2453   0.4714   0.5379
S2391     S     0.4286   0.5243   0.2589
Ce2392     Ce     0.4714   0.538   0.2453
Be2393     Be     0.4082   0.375   0.6649
He2394     He     0.4222   0.3889   0.6223
C2395     C     0.4082   0.375   0.5797
Be2396     Be     0.375   0.4082   0.6649
He2397     He     0.3889   0.4222   0.6223
C2398     C     0.375   0.4082   0.5797
Be2399     Be     0.375   0.6649   0.4082
He2400     He     0.3889   0.6223   0.4222
C2401     C     0.375   0.5797   0.4082
Be2402     Be     0.4082   0.6649   0.375
He2403     He     0.4222   0.6223   0.3889
C2404     C     0.4082   0.5797   0.375
Be2405     Be     0.6649   0.4082   0.375
He2406     He     0.6223   0.4222   0.3889
C2407     C     0.5797   0.4082   0.375
Be2408     Be     0.6649   0.375   0.4082
He2409     He     0.6223   0.3889   0.4222
C2410     C     0.5797   0.375   0.4082
Be2411     Be     0.4082   0.375   0.0851
He2412     He     0.4222   0.3611   0.1277
C2413     C     0.4082   0.375   0.1703
Be2414     Be     0.3418   0.375   0.0851
He2415     He     0.3278   0.3889   0.1277
C2416     C     0.3418   0.375   0.1703
Be2417     Be     0.0851   0.4082   0.375
He2418     He     0.1277   0.4222   0.3611
C2419     C     0.1703   0.4082   0.375
Be2420     Be     0.0851   0.3418   0.375
He2421     He     0.1277   0.3278   0.3889
C2422     C     0.1703   0.3418   0.375
Be2423     Be     0.375   0.0851   0.4082
He2424     He     0.3611   0.1277   0.4222
C2425     C     0.375   0.1703   0.4082
Be2426     Be     0.375   0.0851   0.3418
He2427     He     0.3889   0.1277   0.3278
C2428     C     0.375   0.1703   0.3418
Be2429     Be     0.0851   0.375   0.3418
He2430     He     0.1277   0.3889   0.3278
C2431     C     0.1703   0.375   0.3418
Be2432     Be     0.3418   0.0851   0.375
He2433     He     0.3278   0.1277   0.3889
C2434     C     0.3418   0.1703   0.375
Be2435     Be     0.375   0.3418   0.0851
He2436     He     0.3889   0.3278   0.1277
C2437     C     0.375   0.3418   0.1703
Be2438     Be     0.3418   0.375   0.6649
He2439     He     0.3278   0.3611   0.6223
C2440     C     0.3418   0.375   0.5797
Be2441     Be     0.375   0.6649   0.3418
He2442     He     0.3611   0.6223   0.3278
C2443     C     0.375   0.5797   0.3418
Be2444     Be     0.6649   0.375   0.3418
He2445     He     0.6223   0.3611   0.3278
C2446     C     0.5797   0.375   0.3418
Be2447     Be     0.6649   0.3418   0.375
He2448     He     0.6223   0.3278   0.3611
C2449     C     0.5797   0.3418   0.375
Be2450     Be     0.3418   0.6649   0.375
He2451     He     0.3278   0.6223   0.3611
C2452     C     0.3418   0.5797   0.375
Be2453     Be     0.375   0.3418   0.6649
He2454     He     0.3611   0.3278   0.6223
C2455     C     0.375   0.3418   0.5797
Be2456     Be     0.0851   0.375   0.4082
He2457     He     0.1277   0.3611   0.4222
C2458     C     0.1703   0.375   0.4082
Be2459     Be     0.4082   0.0851   0.375
He2460     He     0.4222   0.1277   0.3611
C2461     C     0.4082   0.1703   0.375
Be2462     Be     0.375   0.4082   0.0851
He2463     He     0.3611   0.4222   0.1277
C2464     C     0.375   0.4082   0.1703
N2465     N     0.4945   0.5827   0.2888
Ne2466     Ne     0.4796   0.5689   0.3311
N2467     N     0.4612   0.5827   0.2555
Ne2468     Ne     0.4189   0.5689   0.2704
B2469     B     0.437   0.5562   0.3462
B2470     B     0.4038   0.5562   0.313
N2471     N     0.2888   0.4945   0.5827
Ne2472     Ne     0.3311   0.4796   0.5689
N2473     N     0.2555   0.4612   0.5827
Ne2474     Ne     0.2704   0.4189   0.5689
B2475     B     0.313   0.4038   0.5562
B2476     B     0.3462   0.437   0.5562
N2477     N     0.1673   0.2888   0.2555
Ne2478     Ne     0.1811   0.3311   0.2704
N2479     N     0.1673   0.2555   0.2888
Ne2480     Ne     0.1812   0.2704   0.3311
B2481     B     0.1938   0.3462   0.313
B2482     B     0.1938   0.313   0.3462
N2483     N     0.1673   0.4612   0.4945
Ne2484     Ne     0.1811   0.4189   0.4796
N2485     N     0.1673   0.4945   0.4612
Ne2486     Ne     0.1812   0.4796   0.4189
B2487     B     0.1938   0.437   0.4038
B2488     B     0.1938   0.4038   0.437
N2489     N     0.2888   0.1673   0.2555
Ne2490     Ne     0.3311   0.1812   0.2704
N2491     N     0.2555   0.1673   0.2888
Ne2492     Ne     0.2704   0.1811   0.3311
B2493     B     0.313   0.1938   0.3462
B2494     B     0.3462   0.1938   0.313
N2495     N     0.4945   0.1673   0.4612
Ne2496     Ne     0.4796   0.1811   0.4189
N2497     N     0.4612   0.1673   0.4945
Ne2498     Ne     0.4189   0.1812   0.4796
B2499     B     0.437   0.1938   0.4038
B2500     B     0.4038   0.1938   0.437
N2501     N     0.4612   0.4945   0.1673
Ne2502     Ne     0.4189   0.4796   0.1811
N2503     N     0.4945   0.4612   0.1673
Ne2504     Ne     0.4796   0.4189   0.1812
B2505     B     0.437   0.4038   0.1938
B2506     B     0.4038   0.437   0.1938
N2507     N     0.2888   0.2555   0.1673
Ne2508     Ne     0.3311   0.2704   0.1811
N2509     N     0.2555   0.2888   0.1673
Ne2510     Ne     0.2704   0.3311   0.1812
B2511     B     0.3462   0.313   0.1938
B2512     B     0.313   0.3462   0.1938
N2513     N     0.5827   0.2888   0.4945
Ne2514     Ne     0.5689   0.3311   0.4796
N2515     N     0.5827   0.2555   0.4612
Ne2516     Ne     0.5689   0.2704   0.4189
B2517     B     0.5562   0.313   0.4038
B2518     B     0.5562   0.3462   0.437
N2519     N     0.5827   0.4945   0.2888
Ne2520     Ne     0.5689   0.4796   0.3311
N2521     N     0.5827   0.4612   0.2555
Ne2522     Ne     0.5688   0.4189   0.2704
B2523     B     0.5562   0.4038   0.313
B2524     B     0.5562   0.437   0.3462
N2525     N     0.2888   0.5827   0.4945
Ne2526     Ne     0.3311   0.5689   0.4796
N2527     N     0.2555   0.5827   0.4612
Ne2528     Ne     0.2704   0.5689   0.4189
B2529     B     0.3462   0.5562   0.437
B2530     B     0.313   0.5562   0.4038
N2531     N     0.4945   0.2888   0.5827
Ne2532     Ne     0.4796   0.3311   0.5689
N2533     N     0.4612   0.2555   0.5827
Ne2534     Ne     0.4189   0.2704   0.5688
B2535     B     0.437   0.3462   0.5562
B2536     B     0.4038   0.313   0.5562
Er2537     Er     0.448   0.4148   0.2381
Er2538     Er     0.4148   0.448   0.2381
Er2539     Er     0.2381   0.448   0.4148
Er2540     Er     0.2381   0.4148   0.448
Er2541     Er     0.302   0.3352   0.2381
Er2542     Er     0.3352   0.302   0.2381
Er2543     Er     0.4148   0.2381   0.448
Er2544     Er     0.448   0.2381   0.4148
Er2545     Er     0.3352   0.2381   0.302
Er2546     Er     0.302   0.2381   0.3352
Er2547     Er     0.2381   0.302   0.3352
Er2548     Er     0.2381   0.3352   0.302
Er2549     Er     0.448   0.3352   0.5119
Er2550     Er     0.4148   0.302   0.5119
Er2551     Er     0.448   0.5119   0.3352
Er2552     Er     0.4148   0.5119   0.302
Er2553     Er     0.5119   0.448   0.3352
Er2554     Er     0.5119   0.4148   0.302
Er2555     Er     0.3352   0.448   0.5119
Er2556     Er     0.302   0.4148   0.5119
Er2557     Er     0.3352   0.5119   0.448
Er2558     Er     0.302   0.5119   0.4148
Er2559     Er     0.5119   0.302   0.4148
Er2560     Er     0.5119   0.3352   0.448
V2561     V     0.375   0.4082   0.4414
V2562     V     0.375   0.4414   0.4082
V2563     V     0.4082   0.375   0.4414
V2564     V     0.4414   0.375   0.4082
V2565     V     0.4082   0.4414   0.375
V2566     V     0.4414   0.4082   0.375
Ti2567     Ti     0.4685   0.4353   0.3479
Ti2568     Ti     0.4685   0.4021   0.3147
Ti2569     Ti     0.4021   0.3147   0.4685
Ti2570     Ti     0.4353   0.3479   0.4685
Ti2571     Ti     0.3479   0.4685   0.4353
Ti2572     Ti     0.3147   0.4685   0.4021
Ti2573     Ti     0.4685   0.3147   0.4021
Ti2574     Ti     0.4685   0.3479   0.4353
Ti2575     Ti     0.4353   0.4685   0.3479
Ti2576     Ti     0.4021   0.4685   0.3147
Ti2577     Ti     0.2815   0.4353   0.4021
Ti2578     Ti     0.2815   0.4021   0.4353
V2579     V     0.3086   0.4082   0.375
V2580     V     0.3418   0.4414   0.375
V2581     V     0.3418   0.375   0.3086
V2582     V     0.3086   0.375   0.3418
V2583     V     0.375   0.4082   0.3086
V2584     V     0.375   0.4414   0.3418
Ti2585     Ti     0.4353   0.4021   0.2815
Ti2586     Ti     0.4021   0.4353   0.2815
Ti2587     Ti     0.3479   0.3147   0.2815
Ti2588     Ti     0.3147   0.3479   0.2815
V2589     V     0.4082   0.3086   0.375
V2590     V     0.4414   0.3418   0.375
V2591     V     0.4082   0.375   0.3086
V2592     V     0.4414   0.375   0.3418
V2593     V     0.375   0.3418   0.3086
V2594     V     0.375   0.3086   0.3418
Ti2595     Ti     0.3147   0.2815   0.3479
Ti2596     Ti     0.3479   0.2815   0.3147
Ti2597     Ti     0.4021   0.2815   0.4353
Ti2598     Ti     0.4353   0.2815   0.4021
Ti2599     Ti     0.2815   0.3147   0.3479
Ti2600     Ti     0.2815   0.3479   0.3147
Ti2601     Ti     0.3479   0.4353   0.4685
Ti2602     Ti     0.3147   0.4021   0.4685
V2603     V     0.3418   0.3086   0.375
V2604     V     0.3086   0.3418   0.375
V2605     V     0.3418   0.375   0.4414
V2606     V     0.3086   0.375   0.4082
V2607     V     0.375   0.3418   0.4414
V2608     V     0.375   0.3086   0.4082
O2609     O     0.9901   0.0551   0.874
F2610     F     0.0048   0.0975   0.86
H2611     H     0.9647   0.1152   0.8768
Li2612     Li     0.9505   0.0731   0.8919
O2613     O     0.0099   0.126   0.9449
F2614     F     0.9952   0.14   0.9025
H2615     H     0.0353   0.1232   0.8848
Li2616     Li     0.0495   0.1081   0.9269
H2617     H     0.2853   0.1348   0.8768
Li2618     Li     0.2995   0.1769   0.8919
O2619     O     0.2599   0.1949   0.874
F2620     F     0.2452   0.1525   0.86
H2621     H     0.2147   0.1268   0.8848
Li2622     Li     0.2005   0.1419   0.9269
O2623     O     0.2401   0.124   0.9449
F2624     F     0.2548   0.11   0.9025
O2625     O     0.0551   0.9901   0.874
F2626     F     0.0975   0.0048   0.86
H2627     H     0.1152   0.9647   0.8768
Li2628     Li     0.0731   0.9505   0.8919
O2629     O     0.126   0.0099   0.9449
F2630     F     0.14   0.9952   0.9025
H2631     H     0.1232   0.0353   0.8848
Li2632     Li     0.1081   0.0495   0.9269
O2633     O     0.126   0.4449   0.5099
F2634     F     0.14   0.4025   0.4952
H2635     H     0.1232   0.3848   0.5353
Li2636     Li     0.1081   0.4269   0.5495
H2637     H     0.1152   0.3768   0.4647
Li2638     Li     0.0731   0.3919   0.4505
O2639     O     0.0551   0.374   0.4901
F2640     F     0.0975   0.36   0.5048
H2641     H     0.2147   0.1232   0.3652
Li2642     Li     0.2005   0.1081   0.3231
O2643     O     0.2401   0.126   0.3051
F2644     F     0.2548   0.14   0.3475
H2645     H     0.2853   0.1152   0.3732
Li2646     Li     0.2995   0.0731   0.3581
O2647     O     0.2599   0.0551   0.376
F2648     F     0.2452   0.0975   0.39
O2649     O     0.8051   0.126   0.7401
F2650     F     0.8475   0.14   0.7548
H2651     H     0.8652   0.1232   0.7147
Li2652     Li     0.8231   0.1081   0.7005
O2653     O     0.876   0.0551   0.7599
F2654     F     0.89   0.0975   0.7452
H2655     H     0.8732   0.1152   0.7853
Li2656     Li     0.8581   0.0731   0.7995
O2657     O     0.374   0.1949   0.7599
F2658     F     0.36   0.1525   0.7452
H2659     H     0.3768   0.1348   0.7853
Li2660     Li     0.3919   0.1769   0.7995
H2661     H     0.3848   0.1268   0.7147
Li2662     Li     0.4269   0.1419   0.7005
O2663     O     0.4449   0.124   0.7401
F2664     F     0.4025   0.11   0.7548
S2665     S     0.2743   0.0089   0.5714
Ce2666     Ce     0.2879   0.9953   0.5286
S2667     S     0.0089   0.1786   0.4757
Ce2668     Ce     0.9953   0.2214   0.462
S2669     S     0.2411   0.9757   0.5714
Ce2670     Ce     0.2547   0.962   0.5286
S2671     S     0.0714   0.2743   0.5089
Ce2672     Ce     0.0286   0.2879   0.4953
S2673     S     0.1786   0.2743   0.7411
Ce2674     Ce     0.2214   0.288   0.7547
S2675     S     0.2743   0.1786   0.7411
Ce2676     Ce     0.288   0.2214   0.7547
S2677     S     0.0714   0.2411   0.4757
Ce2678     Ce     0.0286   0.2547   0.462
S2679     S     0.0089   0.0714   0.7743
Ce2680     Ce     0.9953   0.0286   0.788
S2681     S     0.2411   0.1786   0.7743
Ce2682     Ce     0.2547   0.2214   0.788
S2683     S     0.1786   0.9757   0.5089
Ce2684     Ce     0.2214   0.962   0.4953
S2685     S     0.0714   0.9757   0.7411
Ce2686     Ce     0.0286   0.962   0.7547
S2687     S     0.1786   0.2411   0.7743
Ce2688     Ce     0.2214   0.2547   0.788
S2689     S     0.2743   0.2411   0.6786
Ce2690     Ce     0.2879   0.2547   0.7214
S2691     S     0.2743   0.0714   0.5089
Ce2692     Ce     0.288   0.0286   0.4953
S2693     S     0.2411   0.2743   0.6786
Ce2694     Ce     0.2547   0.288   0.7214
S2695     S     0.9757   0.0089   0.6786
Ce2696     Ce     0.962   0.9953   0.7214
S2697     S     0.9757   0.2411   0.5714
Ce2698     Ce     0.962   0.2547   0.5286
S2699     S     0.9757   0.0714   0.7411
Ce2700     Ce     0.962   0.0286   0.7547
S2701     S     0.2411   0.0714   0.4757
Ce2702     Ce     0.2547   0.0286   0.462
S2703     S     0.0089   0.9757   0.6786
Ce2704     Ce     0.9953   0.962   0.7214
S2705     S     0.0089   0.2743   0.5714
Ce2706     Ce     0.9953   0.288   0.5286
S2707     S     0.0714   0.0089   0.7743
Ce2708     Ce     0.0286   0.9953   0.788
S2709     S     0.9757   0.1786   0.5089
Ce2710     Ce     0.962   0.2214   0.4953
S2711     S     0.1786   0.0089   0.4757
Ce2712     Ce     0.2214   0.9953   0.462
Be2713     Be     0.4149   0.1582   0.625
He2714     He     0.3723   0.1722   0.6111
C2715     C     0.3297   0.1582   0.625
Be2716     Be     0.1582   0.125   0.9149
He2717     He     0.1722   0.1111   0.8723
C2718     C     0.1582   0.125   0.8297
Be2719     Be     0.1582   0.125   0.3351
He2720     He     0.1722   0.1389   0.3777
C2721     C     0.1582   0.125   0.4203
Be2722     Be     0.125   0.1582   0.9149
He2723     He     0.1111   0.1722   0.8723
C2724     C     0.125   0.1582   0.8297
Be2725     Be     0.8351   0.0918   0.625
He2726     He     0.8777   0.0778   0.6111
C2727     C     0.9203   0.0918   0.625
Be2728     Be     0.0918   0.8351   0.625
He2729     He     0.0778   0.8777   0.6111
C2730     C     0.0918   0.9203   0.625
Be2731     Be     0.125   0.1582   0.3351
He2732     He     0.1389   0.1722   0.3777
C2733     C     0.125   0.1582   0.4203
Be2734     Be     0.0918   0.125   0.9149
He2735     He     0.0778   0.1389   0.8723
C2736     C     0.0918   0.125   0.8297
Be2737     Be     0.125   0.4149   0.6582
He2738     He     0.1111   0.3723   0.6722
C2739     C     0.125   0.3297   0.6582
Be2740     Be     0.4149   0.125   0.5918
He2741     He     0.3723   0.1389   0.5778
C2742     C     0.3297   0.125   0.5918
Be2743     Be     0.4149   0.0918   0.625
He2744     He     0.3723   0.0778   0.6389
C2745     C     0.3297   0.0918   0.625
Be2746     Be     0.8351   0.125   0.6582
He2747     He     0.8777   0.1389   0.6722
C2748     C     0.9203   0.125   0.6582
Be2749     Be     0.125   0.8351   0.6582
He2750     He     0.1389   0.8777   0.6722
C2751     C     0.125   0.9203   0.6582
Be2752     Be     0.8351   0.1582   0.625
He2753     He     0.8777   0.1722   0.6389
C2754     C     0.9203   0.1582   0.625
Be2755     Be     0.1582   0.8351   0.625
He2756     He     0.1722   0.8777   0.6389
C2757     C     0.1582   0.9203   0.625
Be2758     Be     0.1582   0.4149   0.625
He2759     He     0.1722   0.3723   0.6111
C2760     C     0.1582   0.3297   0.625
Be2761     Be     0.125   0.4149   0.5918
He2762     He     0.1389   0.3723   0.5778
C2763     C     0.125   0.3297   0.5918
Be2764     Be     0.4149   0.125   0.6582
He2765     He     0.3723   0.1111   0.6722
C2766     C     0.3297   0.125   0.6582
Be2767     Be     0.125   0.0918   0.3351
He2768     He     0.1111   0.0778   0.3777
C2769     C     0.125   0.0918   0.4203
Be2770     Be     0.0918   0.125   0.3351
He2771     He     0.0778   0.1111   0.3777
C2772     C     0.0918   0.125   0.4203
Be2773     Be     0.0918   0.4149   0.625
He2774     He     0.0778   0.3723   0.6389
C2775     C     0.0918   0.3297   0.625
Be2776     Be     0.125   0.0918   0.9149
He2777     He     0.1389   0.0778   0.8723
C2778     C     0.125   0.0918   0.8297
Be2779     Be     0.8351   0.125   0.5918
He2780     He     0.8777   0.1111   0.5778
C2781     C     0.9203   0.125   0.5918
Be2782     Be     0.125   0.8351   0.5918
He2783     He     0.1111   0.8777   0.5778
C2784     C     0.125   0.9203   0.5918
N2785     N     0.9173   0.2112   0.5055
Ne2786     Ne     0.9312   0.1689   0.5204
N2787     N     0.9173   0.2445   0.5388
Ne2788     Ne     0.9312   0.2296   0.5811
B2789     B     0.9438   0.1538   0.563
B2790     B     0.9438   0.187   0.5962
N2791     N     0.9173   0.0388   0.7445
Ne2792     Ne     0.9312   0.0811   0.7296
N2793     N     0.9173   0.0055   0.7112
Ne2794     Ne     0.9312   0.0204   0.6689
B2795     B     0.9438   0.063   0.6538
B2796     B     0.9438   0.0962   0.687
N2797     N     0.2112   0.0055   0.4173
Ne2798     Ne     0.1689   0.0204   0.4312
N2799     N     0.2445   0.0388   0.4173
Ne2800     Ne     0.2296   0.0811   0.4311
B2801     B     0.1538   0.063   0.4438
B2802     B     0.187   0.0962   0.4438
N2803     N     0.2112   0.9173   0.5055
Ne2804     Ne     0.1689   0.9312   0.5204
N2805     N     0.2445   0.9173   0.5388
Ne2806     Ne     0.2296   0.9312   0.5811
B2807     B     0.1538   0.9438   0.563
B2808     B     0.187   0.9438   0.5962
N2809     N     0.0388   0.3327   0.5055
Ne2810     Ne     0.0811   0.3188   0.5204
N2811     N     0.0055   0.3327   0.5388
Ne2812     Ne     0.0204   0.3188   0.5811
B2813     B     0.0962   0.3062   0.563
B2814     B     0.063   0.3062   0.5962
N2815     N     0.0388   0.9173   0.7445
Ne2816     Ne     0.0811   0.9312   0.7296
N2817     N     0.0055   0.9173   0.7112
Ne2818     Ne     0.0204   0.9312   0.6689
B2819     B     0.063   0.9438   0.6538
B2820     B     0.0962   0.9438   0.687
N2821     N     0.0388   0.2445   0.4173
Ne2822     Ne     0.0811   0.2296   0.4312
N2823     N     0.0055   0.2112   0.4173
Ne2824     Ne     0.0204   0.1689   0.4312
B2825     B     0.0962   0.187   0.4438
B2826     B     0.063   0.1538   0.4438
N2827     N     0.3327   0.0388   0.5055
Ne2828     Ne     0.3188   0.0811   0.5204
N2829     N     0.3327   0.0055   0.5388
Ne2830     Ne     0.3188   0.0204   0.5811
B2831     B     0.3062   0.0962   0.563
B2832     B     0.3062   0.063   0.5962
N2833     N     0.2112   0.3327   0.7445
Ne2834     Ne     0.1689   0.3188   0.7296
N2835     N     0.2445   0.3327   0.7112
Ne2836     Ne     0.2296   0.3188   0.6689
B2837     B     0.1538   0.3062   0.687
B2838     B     0.187   0.3062   0.6538
N2839     N     0.3327   0.2112   0.7445
Ne2840     Ne     0.3188   0.1689   0.7296
N2841     N     0.3327   0.2445   0.7112
Ne2842     Ne     0.3188   0.2296   0.6689
B2843     B     0.3062   0.187   0.6538
B2844     B     0.3062   0.1538   0.687
N2845     N     0.0388   0.0055   0.8327
Ne2846     Ne     0.0811   0.0204   0.8189
N2847     N     0.0055   0.0388   0.8327
Ne2848     Ne     0.0204   0.0811   0.8188
B2849     B     0.0962   0.063   0.8062
B2850     B     0.063   0.0962   0.8062
N2851     N     0.2112   0.2445   0.8327
Ne2852     Ne     0.1689   0.2296   0.8188
N2853     N     0.2445   0.2112   0.8327
Ne2854     Ne     0.2296   0.1689   0.8188
B2855     B     0.1538   0.187   0.8062
B2856     B     0.187   0.1538   0.8062
Er2857     Er     0.0852   0.198   0.4881
Er2858     Er     0.052   0.1648   0.4881
Er2859     Er     0.1648   0.198   0.7619
Er2860     Er     0.198   0.1648   0.7619
Er2861     Er     0.9881   0.198   0.5852
Er2862     Er     0.9881   0.1648   0.552
Er2863     Er     0.198   0.0852   0.4881
Er2864     Er     0.1648   0.052   0.4881
Er2865     Er     0.0852   0.052   0.7619
Er2866     Er     0.052   0.0852   0.7619
Er2867     Er     0.0852   0.9881   0.698
Er2868     Er     0.052   0.9881   0.6648
Er2869     Er     0.2619   0.0852   0.552
Er2870     Er     0.2619   0.052   0.5852
Er2871     Er     0.2619   0.198   0.6648
Er2872     Er     0.2619   0.1648   0.698
Er2873     Er     0.198   0.2619   0.6648
Er2874     Er     0.1648   0.2619   0.698
Er2875     Er     0.9881   0.0852   0.698
Er2876     Er     0.9881   0.052   0.6648
Er2877     Er     0.1648   0.9881   0.552
Er2878     Er     0.198   0.9881   0.5852
Er2879     Er     0.052   0.2619   0.5852
Er2880     Er     0.0852   0.2619   0.552
Ti2881     Ti     0.2185   0.0979   0.5647
Ti2882     Ti     0.2185   0.0647   0.5979
Ti2883     Ti     0.0979   0.1853   0.5315
Ti2884     Ti     0.0647   0.1521   0.5315
Ti2885     Ti     0.0315   0.0979   0.6853
Ti2886     Ti     0.0315   0.0647   0.6521
Ti2887     Ti     0.1521   0.0315   0.5647
Ti2888     Ti     0.1853   0.0315   0.5979
Ti2889     Ti     0.2185   0.1853   0.6521
Ti2890     Ti     0.2185   0.1521   0.6853
Ti2891     Ti     0.1853   0.2185   0.6521
Ti2892     Ti     0.1521   0.2185   0.6853
Ti2893     Ti     0.0315   0.1853   0.5979
Ti2894     Ti     0.0315   0.1521   0.5647
Ti2895     Ti     0.0979   0.0315   0.6853
Ti2896     Ti     0.0647   0.0315   0.6521
Ti2897     Ti     0.1853   0.0979   0.5315
Ti2898     Ti     0.1521   0.0647   0.5315
V2899     V     0.0918   0.0586   0.625
V2900     V     0.0586   0.0918   0.625
V2901     V     0.125   0.0586   0.5918
V2902     V     0.125   0.0918   0.5586
V2903     V     0.0586   0.125   0.5918
V2904     V     0.0918   0.125   0.5586
Ti2905     Ti     0.0647   0.0979   0.7185
Ti2906     Ti     0.0979   0.0647   0.7185
V2907     V     0.1914   0.0918   0.625
V2908     V     0.1582   0.0586   0.625
V2909     V     0.125   0.0586   0.6582
V2910     V     0.125   0.0918   0.6914
V2911     V     0.1582   0.125   0.6914
V2912     V     0.1914   0.125   0.6582
V2913     V     0.1582   0.125   0.5586
V2914     V     0.1914   0.125   0.5918
V2915     V     0.125   0.1914   0.5918
V2916     V     0.125   0.1582   0.5586
V2917     V     0.1582   0.1914   0.625
V2918     V     0.1914   0.1582   0.625
Ti2919     Ti     0.1521   0.1853   0.7185
Ti2920     Ti     0.1853   0.1521   0.7185
Ti2921     Ti     0.0647   0.2185   0.5979
Ti2922     Ti     0.0979   0.2185   0.5647
V2923     V     0.0918   0.125   0.6914
V2924     V     0.0586   0.125   0.6582
V2925     V     0.0586   0.1582   0.625
V2926     V     0.0918   0.1914   0.625
V2927     V     0.125   0.1582   0.6914
V2928     V     0.125   0.1914   0.6582
O2929     O     0.9901   0.874   0.0551
F2930     F     0.0048   0.86   0.0975
H2931     H     0.9647   0.8768   0.1152
Li2932     Li     0.9505   0.8919   0.0731
O2933     O     0.0099   0.9449   0.126
F2934     F     0.9952   0.9025   0.14
H2935     H     0.0353   0.8848   0.1232
Li2936     Li     0.0495   0.9269   0.1081
O2937     O     0.0551   0.874   0.9901
F2938     F     0.0975   0.86   0.0048
H2939     H     0.1152   0.8768   0.9647
Li2940     Li     0.0731   0.8919   0.9505
O2941     O     0.126   0.9449   0.0099
F2942     F     0.14   0.9025   0.9952
H2943     H     0.1232   0.8848   0.0353
Li2944     Li     0.1081   0.9269   0.0495
O2945     O     0.126   0.5099   0.4449
F2946     F     0.14   0.4952   0.4025
H2947     H     0.1232   0.5353   0.3848
Li2948     Li     0.1081   0.5495   0.4269
O2949     O     0.0551   0.4901   0.374
F2950     F     0.0975   0.5048   0.36
H2951     H     0.1152   0.4647   0.3768
Li2952     Li     0.0731   0.4505   0.3919
H2953     H     0.2853   0.8768   0.1348
Li2954     Li     0.2995   0.8919   0.1769
O2955     O     0.2599   0.874   0.1949
F2956     F     0.2452   0.86   0.1525
H2957     H     0.2147   0.8848   0.1268
Li2958     Li     0.2005   0.9269   0.1419
O2959     O     0.2401   0.9449   0.124
F2960     F     0.2548   0.9025   0.11
H2961     H     0.3768   0.4647   0.1152
Li2962     Li     0.3919   0.4505   0.0731
O2963     O     0.374   0.4901   0.0551
F2964     F     0.36   0.5048   0.0975
O2965     O     0.4449   0.5099   0.126
F2966     F     0.4025   0.4952   0.14
H2967     H     0.3848   0.5353   0.1232
Li2968     Li     0.4269   0.5495   0.1081
H2969     H     0.1232   0.3652   0.2147
Li2970     Li     0.1081   0.3231   0.2005
O2971     O     0.126   0.3051   0.2401
F2972     F     0.14   0.3475   0.2548
O2973     O     0.0551   0.376   0.2599
F2974     F     0.0975   0.39   0.2452
H2975     H     0.1152   0.3732   0.2853
Li2976     Li     0.0731   0.3581   0.2995
H2977     H     0.2853   0.6348   0.3768
Li2978     Li     0.2995   0.6769   0.3919
O2979     O     0.2599   0.6949   0.374
F2980     F     0.2452   0.6525   0.36
H2981     H     0.2147   0.6268   0.3848
Li2982     Li     0.2005   0.6419   0.4269
O2983     O     0.2401   0.624   0.4449
F2984     F     0.2548   0.61   0.4025
O2985     O     0.126   0.7401   0.8051
F2986     F     0.14   0.7548   0.8475
H2987     H     0.1232   0.7147   0.8652
Li2988     Li     0.1081   0.7005   0.8231
O2989     O     0.0551   0.7599   0.876
F2990     F     0.0975   0.7452   0.89
H2991     H     0.1152   0.7853   0.8732
Li2992     Li     0.0731   0.7995   0.8581
O2993     O     0.1949   0.7599   0.374
F2994     F     0.1525   0.7452   0.36
H2995     H     0.1348   0.7853   0.3768
Li2996     Li     0.1769   0.7995   0.3919
H2997     H     0.1268   0.7147   0.3848
Li2998     Li     0.1419   0.7005   0.4269
O2999     O     0.124   0.7401   0.4449
F3000     F     0.11   0.7548   0.4025
S3001     S     0.0089   0.5714   0.2743
Ce3002     Ce     0.9953   0.5286   0.288
S3003     S     0.9757   0.5714   0.2411
Ce3004     Ce     0.962   0.5286   0.2547
S3005     S     0.1786   0.4757   0.0089
Ce3006     Ce     0.2214   0.462   0.9953
S3007     S     0.9757   0.5089   0.1786
Ce3008     Ce     0.962   0.4953   0.2214
S3009     S     0.2743   0.5089   0.0714
Ce3010     Ce     0.2879   0.4953   0.0286
S3011     S     0.1786   0.7411   0.2743
Ce3012     Ce     0.2214   0.7547   0.288
S3013     S     0.2743   0.7411   0.1786
Ce3014     Ce     0.2879   0.7547   0.2214
S3015     S     0.0714   0.7743   0.0089
Ce3016     Ce     0.0286   0.788   0.9953
S3017     S     0.2411   0.4757   0.0714
Ce3018     Ce     0.2547   0.462   0.0286
S3019     S     0.1786   0.7743   0.2411
Ce3020     Ce     0.2214   0.788   0.2547
S3021     S     0.9757   0.7411   0.0714
Ce3022     Ce     0.962   0.7547   0.0286
S3023     S     0.2411   0.7743   0.1786
Ce3024     Ce     0.2547   0.788   0.2214
S3025     S     0.1786   0.5089   0.9757
Ce3026     Ce     0.2214   0.4953   0.962
S3027     S     0.2411   0.6786   0.2743
Ce3028     Ce     0.2547   0.7214   0.2879
S3029     S     0.2743   0.6786   0.2411
Ce3030     Ce     0.288   0.7214   0.2547
S3031     S     0.0089   0.6786   0.9757
Ce3032     Ce     0.9953   0.7214   0.962
S3033     S     0.0714   0.7411   0.9757
Ce3034     Ce     0.0286   0.7547   0.962
S3035     S     0.0714   0.4757   0.2411
Ce3036     Ce     0.0286   0.462   0.2547
S3037     S     0.2411   0.5714   0.9757
Ce3038     Ce     0.2547   0.5286   0.962
S3039     S     0.2743   0.5714   0.0089
Ce3040     Ce     0.288   0.5286   0.9953
S3041     S     0.0089   0.4757   0.1786
Ce3042     Ce     0.9953   0.462   0.2214
S3043     S     0.0714   0.5089   0.2743
Ce3044     Ce     0.0286   0.4953   0.288
S3045     S     0.9757   0.6786   0.0089
Ce3046     Ce     0.962   0.7214   0.9953
S3047     S     0.0089   0.7743   0.0714
Ce3048     Ce     0.9953   0.788   0.0286
Be3049     Be     0.125   0.6582   0.8351
He3050     He     0.1389   0.6722   0.8777
C3051     C     0.125   0.6582   0.9203
Be3052     Be     0.1582   0.625   0.4149
He3053     He     0.1722   0.6111   0.3723
C3054     C     0.1582   0.625   0.3297
Be3055     Be     0.1582   0.9149   0.125
He3056     He     0.1722   0.8723   0.1111
C3057     C     0.1582   0.8297   0.125
Be3058     Be     0.125   0.3351   0.1582
He3059     He     0.1389   0.3777   0.1722
C3060     C     0.125   0.4203   0.1582
Be3061     Be     0.1582   0.3351   0.125
He3062     He     0.1722   0.3777   0.1389
C3063     C     0.1582   0.4203   0.125
Be3064     Be     0.0918   0.625   0.8351
He3065     He     0.0778   0.6111   0.8777
C3066     C     0.0918   0.625   0.9203
Be3067     Be     0.0918   0.625   0.4149
He3068     He     0.0778   0.6389   0.3723
C3069     C     0.0918   0.625   0.3297
Be3070     Be     0.0918   0.9149   0.125
He3071     He     0.0778   0.8723   0.1389
C3072     C     0.0918   0.8297   0.125
Be3073     Be     0.125   0.9149   0.0918
He3074     He     0.1389   0.8723   0.0778
C3075     C     0.125   0.8297   0.0918
Be3076     Be     0.125   0.5918   0.4149
He3077     He     0.1389   0.5778   0.3723
C3078     C     0.125   0.5918   0.3297
Be3079     Be     0.4149   0.6582   0.125
He3080     He     0.3723   0.6722   0.1111
C3081     C     0.3297   0.6582   0.125
Be3082     Be     0.8351   0.6582   0.125
He3083     He     0.8777   0.6722   0.1389
C3084     C     0.9203   0.6582   0.125
Be3085     Be     0.125   0.9149   0.1582
He3086     He     0.1111   0.8723   0.1722
C3087     C     0.125   0.8297   0.1582
Be3088     Be     0.1582   0.625   0.8351
He3089     He     0.1722   0.6389   0.8777
C3090     C     0.1582   0.625   0.9203
Be3091     Be     0.4149   0.625   0.1582
He3092     He     0.3723   0.6111   0.1722
C3093     C     0.3297   0.625   0.1582
Be3094     Be     0.8351   0.625   0.1582
He3095     He     0.8777   0.6389   0.1722
C3096     C     0.9203   0.625   0.1582
Be3097     Be     0.125   0.6582   0.4149
He3098     He     0.1111   0.6722   0.3723
C3099     C     0.125   0.6582   0.3297
Be3100     Be     0.8351   0.625   0.0918
He3101     He     0.8777   0.6111   0.0778
C3102     C     0.9203   0.625   0.0918
Be3103     Be     0.4149   0.625   0.0918
He3104     He     0.3723   0.6389   0.0778
C3105     C     0.3297   0.625   0.0918
Be3106     Be     0.0918   0.3351   0.125
He3107     He     0.0778   0.3777   0.1111
C3108     C     0.0918   0.4203   0.125
Be3109     Be     0.125   0.3351   0.0918
He3110     He     0.1111   0.3777   0.0778
C3111     C     0.125   0.4203   0.0918
Be3112     Be     0.8351   0.5918   0.125
He3113     He     0.8777   0.5778   0.1111
C3114     C     0.9203   0.5918   0.125
Be3115     Be     0.125   0.5918   0.8351
He3116     He     0.1111   0.5778   0.8777
C3117     C     0.125   0.5918   0.9203
Be3118     Be     0.4149   0.5918   0.125
He3119     He     0.3723   0.5778   0.1389
C3120     C     0.3297   0.5918   0.125
N3121     N     0.2112   0.5055   0.9173
Ne3122     Ne     0.1689   0.5204   0.9312
N3123     N     0.2445   0.5388   0.9173
Ne3124     Ne     0.2296   0.5811   0.9312
B3125     B     0.1538   0.563   0.9438
B3126     B     0.187   0.5962   0.9438
N3127     N     0.0055   0.4173   0.2112
Ne3128     Ne     0.0204   0.4312   0.1689
N3129     N     0.0388   0.4173   0.2445
Ne3130     Ne     0.0811   0.4311   0.2296
B3131     B     0.063   0.4438   0.1538
B3132     B     0.0962   0.4438   0.187
N3133     N     0.0388   0.7445   0.9173
Ne3134     Ne     0.0811   0.7296   0.9312
N3135     N     0.0055   0.7112   0.9173
Ne3136     Ne     0.0204   0.6689   0.9312
B3137     B     0.0962   0.687   0.9438
B3138     B     0.063   0.6538   0.9438
N3139     N     0.2445   0.4173   0.0388
Ne3140     Ne     0.2296   0.4312   0.0811
N3141     N     0.2112   0.4173   0.0055
Ne3142     Ne     0.1689   0.4312   0.0204
B3143     B     0.187   0.4438   0.0962
B3144     B     0.1538   0.4438   0.063
N3145     N     0.9173   0.7445   0.0388
Ne3146     Ne     0.9312   0.7296   0.0811
N3147     N     0.9173   0.7112   0.0055
Ne3148     Ne     0.9312   0.6689   0.0204
B3149     B     0.9438   0.687   0.0962
B3150     B     0.9438   0.6538   0.063
N3151     N     0.9173   0.5055   0.2112
Ne3152     Ne     0.9312   0.5204   0.1689
N3153     N     0.9173   0.5388   0.2445
Ne3154     Ne     0.9312   0.5811   0.2296
B3155     B     0.9438   0.563   0.1538
B3156     B     0.9438   0.5962   0.187
N3157     N     0.3327   0.5055   0.0388
Ne3158     Ne     0.3188   0.5204   0.0811
N3159     N     0.3327   0.5388   0.0055
Ne3160     Ne     0.3188   0.5811   0.0204
B3161     B     0.3062   0.5962   0.063
B3162     B     0.3062   0.563   0.0962
N3163     N     0.0388   0.5055   0.3327
Ne3164     Ne     0.0811   0.5204   0.3188
N3165     N     0.0055   0.5388   0.3327
Ne3166     Ne     0.0204   0.5811   0.3188
B3167     B     0.0962   0.563   0.3062
B3168     B     0.063   0.5962   0.3062
N3169     N     0.3327   0.7445   0.2112
Ne3170     Ne     0.3188   0.7296   0.1689
N3171     N     0.3327   0.7112   0.2445
Ne3172     Ne     0.3188   0.6689   0.2296
B3173     B     0.3062   0.6538   0.187
B3174     B     0.3062   0.687   0.1538
N3175     N     0.2112   0.7445   0.3327
Ne3176     Ne     0.1689   0.7296   0.3188
N3177     N     0.2445   0.7112   0.3327
Ne3178     Ne     0.2296   0.6689   0.3188
B3179     B     0.187   0.6538   0.3062
B3180     B     0.1538   0.687   0.3062
N3181     N     0.0055   0.8327   0.0388
Ne3182     Ne     0.0204   0.8188   0.0811
N3183     N     0.0388   0.8327   0.0055
Ne3184     Ne     0.0811   0.8188   0.0204
B3185     B     0.0962   0.8062   0.063
B3186     B     0.063   0.8062   0.0962
N3187     N     0.2445   0.8327   0.2112
Ne3188     Ne     0.2296   0.8188   0.1689
N3189     N     0.2112   0.8327   0.2445
Ne3190     Ne     0.1689   0.8188   0.2296
B3191     B     0.187   0.8062   0.1538
B3192     B     0.1538   0.8062   0.187
Er3193     Er     0.198   0.7619   0.1648
Er3194     Er     0.1648   0.7619   0.198
Er3195     Er     0.0852   0.4881   0.198
Er3196     Er     0.052   0.4881   0.1648
Er3197     Er     0.052   0.7619   0.0852
Er3198     Er     0.0852   0.7619   0.052
Er3199     Er     0.9881   0.552   0.1648
Er3200     Er     0.9881   0.5852   0.198
Er3201     Er     0.198   0.5852   0.9881
Er3202     Er     0.1648   0.552   0.9881
Er3203     Er     0.198   0.4881   0.0852
Er3204     Er     0.1648   0.4881   0.052
Er3205     Er     0.9881   0.698   0.0852
Er3206     Er     0.9881   0.6648   0.052
Er3207     Er     0.0852   0.552   0.2619
Er3208     Er     0.052   0.5852   0.2619
Er3209     Er     0.2619   0.6648   0.198
Er3210     Er     0.2619   0.698   0.1648
Er3211     Er     0.198   0.6648   0.2619
Er3212     Er     0.1648   0.698   0.2619
Er3213     Er     0.052   0.6648   0.9881
Er3214     Er     0.0852   0.698   0.9881
Er3215     Er     0.2619   0.552   0.0852
Er3216     Er     0.2619   0.5852   0.052
Ti3217     Ti     0.1521   0.5647   0.0315
Ti3218     Ti     0.1853   0.5979   0.0315
Ti3219     Ti     0.0315   0.5979   0.1853
Ti3220     Ti     0.0315   0.5647   0.1521
Ti3221     Ti     0.0979   0.7185   0.0647
Ti3222     Ti     0.0647   0.7185   0.0979
Ti3223     Ti     0.2185   0.5647   0.0979
Ti3224     Ti     0.2185   0.5979   0.0647
V3225     V     0.1582   0.625   0.0586
V3226     V     0.1914   0.625   0.0918
V3227     V     0.125   0.6914   0.0918
V3228     V     0.125   0.6582   0.0586
V3229     V     0.1914   0.6582   0.125
V3230     V     0.1582   0.6914   0.125
Ti3231     Ti     0.1521   0.7185   0.1853
Ti3232     Ti     0.1853   0.7185   0.1521
V3233     V     0.125   0.6914   0.1582
V3234     V     0.125   0.6582   0.1914
V3235     V     0.0586   0.625   0.1582
V3236     V     0.0918   0.625   0.1914
V3237     V     0.0918   0.6914   0.125
V3238     V     0.0586   0.6582   0.125
Ti3239     Ti     0.0647   0.6521   0.0315
Ti3240     Ti     0.0979   0.6853   0.0315
Ti3241     Ti     0.0979   0.5647   0.2185
Ti3242     Ti     0.0647   0.5979   0.2185
Ti3243     Ti     0.1853   0.5315   0.0979
Ti3244     Ti     0.1521   0.5315   0.0647
Ti3245     Ti     0.0315   0.6853   0.0979
Ti3246     Ti     0.0315   0.6521   0.0647
Ti3247     Ti     0.0979   0.5315   0.1853
Ti3248     Ti     0.0647   0.5315   0.1521
V3249     V     0.0918   0.625   0.0586
V3250     V     0.0586   0.625   0.0918
V3251     V     0.0586   0.5918   0.125
V3252     V     0.0918   0.5586   0.125
V3253     V     0.125   0.5918   0.0586
V3254     V     0.125   0.5586   0.0918
Ti3255     Ti     0.1853   0.6521   0.2185
Ti3256     Ti     0.1521   0.6853   0.2185
Ti3257     Ti     0.2185   0.6521   0.1853
Ti3258     Ti     0.2185   0.6853   0.1521
V3259     V     0.125   0.5586   0.1582
V3260     V     0.125   0.5918   0.1914
V3261     V     0.1582   0.5586   0.125
V3262     V     0.1914   0.5918   0.125
V3263     V     0.1582   0.625   0.1914
V3264     V     0.1914   0.625   0.1582
loop_
_geom_bond_atom_site_label_1
_geom_bond_atom_site_label_2
_geom_bond_distance
_geom_bond_site_symmetry_2
_ccdc_geom_bond_type
Na1     Mg2    9.997   .     S
Na1     O1301    10.006   .     S
Na1     Mg332    10.023   .     S
Na1     Na65    10.028   .     S
Mg2     Li1300    10.01   .     S
Mg2     Na331    10.023   .     S
Mg2     Mg66    10.028   .     S
Na3     Mg4    9.997   .     S
Na3     O1393    10.006   .     S
Na3     Mg300    10.023   .     S
Na3     Na93    10.028   .     S
Mg4     Li1400    10.01   .     S
Mg4     Na299    10.023   .     S
Mg4     Mg94    10.028   .     S
Na5     Mg6    9.997   .     S
Na5     O1377    10.006   .     S
Na5     Mg378    10.023   .     S
Na5     Na103    10.028   .     S
Mg6     Li1384    10.01   .     S
Mg6     Na377    10.023   .     S
Mg6     Mg104    10.028   .     S
Na7     Mg8    9.997   .     S
Na7     O2335    10.006   .     S
Na7     Mg260    10.023   .     S
Na7     Na173    10.028   .     S
Mg8     Li2332    10.01   .     S
Mg8     Na259    10.023   .     S
Mg8     Mg174    10.028   .     S
Na9     Mg10    9.997   .     S
Na9     O1385    10.006   .     S
Na9     Mg304    10.023   .     S
Na9     Na99    10.028   .     S
Mg10     Li1392    10.01   .     S
Mg10     Na303    10.023   .     S
Mg10     Mg100    10.028   .     S
Na11     Mg12    9.997   .     S
Na11     O1017    10.006   .     S
Na11     Mg158    10.023   .     S
Na11     Na273    10.028   .     S
Mg12     Li1022    10.01   .     S
Mg12     Na157    10.023   .     S
Mg12     Mg274    10.028   .     S
Na13     Mg14    9.997   .     S
Na13     O2051    10.006   .     S
Na13     Mg148    10.023   .     S
Na13     Na175    10.028   .     S
Mg14     Li2054    10.01   .     S
Mg14     Na147    10.023   .     S
Mg14     Mg176    10.028   .     S
Na15     Mg16    9.997   .     S
Na15     O2965    10.006   .     S
Na15     Mg324    10.023   .     S
Na15     Na311    10.028   .     S
Mg16     Li2962    10.01   .     S
Mg16     Na323    10.023   .     S
Mg16     Mg312    10.028   .     S
Na17     Mg18    9.997   .     S
Na17     O429    10.006   .     S
Na17     Mg112    10.023   .     S
Na17     Na245    10.028   .     S
Mg18     Li428    10.01   .     S
Mg18     Na111    10.023   .     S
Mg18     Mg246    10.028   .     S
Na19     Mg20    9.997   .     S
Na19     O1313    10.006   .     S
Na19     Mg114    10.023   .     S
Na19     Na243    10.028   .     S
Mg20     Li1318    10.01   .     S
Mg20     Na113    10.023   .     S
Mg20     Mg244    10.028   .     S
Na21     Mg22    9.997   .     S
Na21     O1309    10.006   .     S
Na21     Mg98    10.023   .     S
Na21     Na247    10.028   .     S
Mg22     Li1306    10.01   .     S
Mg22     Na97    10.023   .     S
Mg22     Mg248    10.028   .     S
Na23     Mg24    9.997   .     S
Na23     O1415    10.006   .     S
Na23     Mg288    10.023   .     S
Na23     Na133    10.028   .     S
Mg24     Li1412    10.01   .     S
Mg24     Na287    10.023   .     S
Mg24     Mg134    10.028   .     S
Na25     Mg26    9.997   .     S
Na25     O1769    10.006   .     S
Na25     Mg162    10.023   .     S
Na25     Na269    10.028   .     S
Mg26     Li1774    10.01   .     S
Mg26     Na161    10.023   .     S
Mg26     Mg270    10.028   .     S
Na27     Mg28    9.997   .     S
Na27     O409    10.006   1_556     S
Na27     Mg48    10.023   1_556     S
Na27     Na55    10.028   .     S
Mg28     Li416    10.01   .     S
Mg28     Na47    10.023   1_556     S
Mg28     Mg56    10.028   .     S
Na29     Mg30    9.997   .     S
Na29     O417    10.006   1_655     S
Na29     Mg50    10.023   1_655     S
Na29     Na53    10.028   .     S
Mg30     Li424    10.01   .     S
Mg30     Na49    10.023   1_655     S
Mg30     Mg54    10.028   .     S
Na31     Mg32    9.997   .     S
Na31     O649    10.006   1_565     S
Na31     Mg280    10.023   1_565     S
Na31     Na57    10.028   .     S
Mg32     Li656    10.01   .     S
Mg32     Na279    10.023   1_565     S
Mg32     Mg58    10.028   .     S
Na33     Mg34    9.997   .     S
Na33     O465    10.006   .     S
Na33     Mg190    10.023   .     S
Na33     Na347    10.028   .     S
Mg34     Li470    10.01   .     S
Mg34     Na189    10.023   .     S
Mg34     Mg348    10.028   .     S
Na35     Mg36    9.997   .     S
Na35     O507    10.006   .     S
Na35     Mg372    10.023   .     S
Na35     Na353    10.028   .     S
Mg36     Li512    10.01   .     S
Mg36     Na371    10.023   .     S
Mg36     Mg354    10.028   .     S
Na37     Mg38    9.997   .     S
Na37     O705    10.006   1_554     S
Na37     Mg68    10.023   1_554     S
Na37     Na59    10.028   .     S
Mg38     Li712    10.01   .     S
Mg38     Na67    10.023   1_554     S
Mg38     Mg60    10.028   .     S
Na39     Mg40    9.997   .     S
Na39     O2929    10.006   1_455     S
Na39     Mg70    10.023   1_455     S
Na39     Na61    10.028   .     S
Mg40     Li2936    10.01   .     S
Mg40     Na69    10.023   1_455     S
Mg40     Mg62    10.028   .     S
Na41     Mg42    9.997   .     S
Na41     O2625    10.006   1_545     S
Na41     Mg276    10.023   1_545     S
Na41     Na63    10.028   .     S
Mg42     Li2632    10.01   .     S
Mg42     Na275    10.023   1_545     S
Mg42     Mg64    10.028   .     S
Na43     Mg44    9.997   .     S
Na43     O567    10.006   1_556     S
Na43     Mg80    10.023   1_556     S
Na43     Na139    10.028   .     S
Mg44     Li564    10.01   .     S
Mg44     Na79    10.023   1_556     S
Mg44     Mg140    10.028   .     S
Na45     Mg46    9.997   .     S
Na45     O463    10.006   1_554     S
Na45     Mg244    10.023   1_554     S
Na45     Na277    10.028   .     S
Mg46     Li460    10.01   .     S
Mg46     Na243    10.023   1_554     S
Mg46     Mg278    10.028   .     S
Na47     Mg48    9.997   .     S
Na47     O413    10.006   1_554     S
Na47     Mg28    10.023   1_554     S
Na47     Na323    10.028   .     S
Mg48     Li412    10.01   .     S
Mg48     Na27    10.023   1_554     S
Mg48     Mg324    10.028   .     S
Na49     Mg50    9.997   .     S
Na49     O421    10.006   1_455     S
Na49     Mg30    10.023   1_455     S
Na49     Na321    10.028   .     S
Mg50     Li420    10.01   .     S
Mg50     Na29    10.023   1_455     S
Mg50     Mg322    10.028   .     S
Na51     Mg52    9.997   .     S
Na51     O639    10.006   1_545     S
Na51     Mg248    10.023   1_545     S
Na51     Na283    10.028   .     S
Mg52     Li636    10.01   .     S
Mg52     Na247    10.023   1_545     S
Mg52     Mg284    10.028   .     S
Na53     Mg54    9.997   .     S
Na53     O1289    10.006   .     S
Na53     Mg206    10.023   .     S
Mg54     Li1294    10.01   .     S
Mg54     Na205    10.023   .     S
Na55     Mg56    9.997   .     S
Na55     O1325    10.006   .     S
Na55     Mg106    10.023   .     S
Mg56     Li1322    10.01   .     S
Mg56     Na105    10.023   .     S
Na57     Mg58    9.997   .     S
Na57     O1333    10.006   .     S
Na57     Mg118    10.023   .     S
Mg58     Li1330    10.01   .     S
Mg58     Na117    10.023   .     S
Na59     Mg60    9.997   .     S
Na59     O481    10.006   1_545     S
Na59     Mg202    10.023   1_545     S
Mg60     Li486    10.01   .     S
Mg60     Na201    10.023   1_545     S
Na61     Mg62    9.997   .     S
Na61     O2937    10.006   1_554     S
Na61     Mg72    10.023   1_554     S
Mg62     Li2944    10.01   .     S
Mg62     Na71    10.023   1_554     S
Na63     Mg64    9.997   .     S
Na63     O2609    10.006   1_455     S
Na63     Mg74    10.023   1_455     S
Mg64     Li2616    10.01   .     S
Mg64     Na73    10.023   1_455     S
Na65     Mg66    9.997   .     S
Na65     O2983    10.006   .     S
Na65     Mg252    10.023   .     S
Mg66     Li2978    10.01   .     S
Mg66     Na251    10.023   .     S
Na67     Mg68    9.997   .     S
Na67     O709    10.006   1_556     S
Na67     Mg38    10.023   1_556     S
Na67     Na73    10.028   .     S
Mg68     Li708    10.01   .     S
Mg68     Na37    10.023   1_556     S
Mg68     Mg74    10.028   .     S
Na69     Mg70    9.997   .     S
Na69     O2933    10.006   1_655     S
Na69     Mg40    10.023   1_655     S
Na69     Na201    10.028   .     S
Mg70     Li2932    10.01   .     S
Mg70     Na39    10.023   1_655     S
Mg70     Mg202    10.028   .     S
Na71     Mg72    9.997   .     S
Na71     O2941    10.006   1_556     S
Na71     Mg62    10.023   1_556     S
Na71     Na275    10.028   .     S
Mg72     Li2940    10.01   .     S
Mg72     Na61    10.023   1_556     S
Mg72     Mg276    10.028   .     S
Na73     Mg74    9.997   .     S
Na73     O2613    10.006   1_655     S
Na73     Mg64    10.023   1_655     S
Mg74     Li2612    10.01   .     S
Mg74     Na63    10.023   1_655     S
Na75     Mg76    9.997   .     S
Na75     O387    10.006   .     S
Na75     Mg188    10.023   .     S
Na75     Na209    10.028   .     S
Mg76     Li390    10.01   .     S
Mg76     Na187    10.023   .     S
Mg76     Mg210    10.028   .     S
Na77     Mg78    9.997   .     S
Na77     O537    10.006   1_554     S
Na77     Mg128    10.023   1_554     S
Na77     Na169    10.028   .     S
Mg78     Li542    10.01   .     S
Mg78     Na127    10.023   1_554     S
Mg78     Mg170    10.028   .     S
Na79     Mg80    9.997   .     S
Na79     O561    10.006   1_554     S
Na79     Mg44    10.023   1_554     S
Na79     Na249    10.028   .     S
Mg80     Li566    10.01   .     S
Mg80     Na43    10.023   1_554     S
Mg80     Mg250    10.028   .     S
Na81     Mg82    9.997   .     S
Na81     O569    10.006   1_545     S
Na81     Mg130    10.023   1_545     S
Na81     Na265    10.028   .     S
Mg82     Li574    10.01   .     S
Mg82     Na129    10.023   1_545     S
Mg82     Mg266    10.028   .     S
Na83     Mg84    9.997   .     S
Na83     O601    10.006   1_545     S
Na83     Mg134    10.023   1_545     S
Na83     Na183    10.028   .     S
Mg84     Li606    10.01   .     S
Mg84     Na133    10.023   1_545     S
Mg84     Mg184    10.028   .     S
Na85     Mg86    9.997   .     S
Na85     O577    10.006   1_455     S
Na85     Mg136    10.023   1_455     S
Na85     Na263    10.028   .     S
Mg86     Li582    10.01   .     S
Mg86     Na135    10.023   1_455     S
Mg86     Mg264    10.028   .     S
Na87     Mg88    9.997   .     S
Na87     O593    10.006   1_455     S
Na87     Mg142    10.023   1_455     S
Na87     Na191    10.028   .     S
Mg88     Li598    10.01   .     S
Mg88     Na141    10.023   1_455     S
Mg88     Mg192    10.028   .     S
Na89     Mg90    9.997   .     S
Na89     O519    10.006   .     S
Na89     Mg320    10.023   .     S
Na89     Na149    10.028   .     S
Mg90     Li516    10.01   .     S
Mg90     Na319    10.023   .     S
Mg90     Mg150    10.028   .     S
Na91     Mg92    9.997   .     S
Na91     O523    10.006   .     S
Na91     Mg290    10.023   .     S
Na91     Na135    10.028   .     S
Mg92     Li526    10.01   .     S
Mg92     Na289    10.023   .     S
Mg92     Mg136    10.028   .     S
Na93     Mg94    9.997   .     S
Na93     O531    10.006   .     S
Na93     Mg102    10.023   .     S
Mg94     Li534    10.01   .     S
Mg94     Na101    10.023   .     S
Na95     Mg96    9.997   .     S
Na95     O679    10.006   .     S
Na95     Mg208    10.023   .     S
Na95     Na367    10.028   .     S
Mg96     Li676    10.01   .     S
Mg96     Na207    10.023   .     S
Mg96     Mg368    10.028   .     S
Na97     Mg98    9.997   .     S
Na97     O1307    10.006   .     S
Na97     Na117    10.028   .     S
Mg98     Li1312    10.01   .     S
Mg98     Mg118    10.028   .     S
Na99     Mg100    9.997   .     S
Na99     O587    10.006   .     S
Na99     Mg166    10.023   .     S
Mg100     Li590    10.01   .     S
Mg100     Na165    10.023   .     S
Na101     Mg102    9.997   .     S
Na101     O535    10.006   .     S
Na101     Na153    10.028   .     S
Mg102     Li530    10.01   .     S
Mg102     Mg154    10.028   .     S
Na103     Mg104    9.997   .     S
Na103     O609    10.006   .     S
Na103     Mg168    10.023   .     S
Mg104     Li614    10.01   .     S
Mg104     Na167    10.023   .     S
Na105     Mg106    9.997   .     S
Na105     O1323    10.006   .     S
Na105     Na113    10.028   .     S
Mg106     Li1328    10.01   .     S
Mg106     Mg114    10.028   .     S
Na107     Mg108    9.997   .     S
Na107     O2623    10.006   .     S
Na107     Mg124    10.023   .     S
Na107     Na357    10.028   .     S
Mg108     Li2618    10.01   .     S
Mg108     Na123    10.023   .     S
Mg108     Mg358    10.028   .     S
Na109     Mg110    9.997   .     S
Na109     O2323    10.006   .     S
Na109     Mg254    10.023   .     S
Na109     Na179    10.028   .     S
Mg110     Li2328    10.01   .     S
Mg110     Na253    10.023   .     S
Mg110     Mg180    10.028   .     S
Na111     Mg112    9.997   .     S
Na111     O425    10.006   .     S
Na111     Na205    10.028   .     S
Mg112     Li432    10.01   .     S
Mg112     Mg206    10.028   .     S
Na113     Mg114    9.997   .     S
Na113     O1319    10.006   .     S
Mg114     Li1316    10.01   .     S
Na115     Mg116    9.997   .     S
Na115     O631    10.006   .     S
Na115     Mg204    10.023   .     S
Na115     Na363    10.028   .     S
Mg116     Li628    10.01   .     S
Mg116     Na203    10.023   .     S
Mg116     Mg364    10.028   .     S
Na117     Mg118    9.997   .     S
Na117     O1331    10.006   .     S
Mg118     Li1336    10.01   .     S
Na119     Mg120    9.997   .     S
Na119     O2633    10.006   .     S
Na119     Mg322    10.023   .     S
Na119     Na315    10.028   .     S
Mg120     Li2638    10.01   .     S
Mg120     Na321    10.023   .     S
Mg120     Mg316    10.028   .     S
Na121     Mg122    9.997   .     S
Na121     O713    10.006   .     S
Na121     Mg382    10.023   .     S
Na121     Na317    10.028   .     S
Mg122     Li718    10.01   .     S
Mg122     Na381    10.023   .     S
Mg122     Mg318    10.028   .     S
Na123     Mg124    9.997   .     S
Na123     O2619    10.006   .     S
Na123     Na203    10.028   .     S
Mg124     Li2622    10.01   .     S
Mg124     Mg204    10.028   .     S
Na125     Mg126    9.997   .     S
Na125     O1407    10.006   .     S
Na125     Mg286    10.023   .     S
Na125     Na141    10.028   .     S
Mg126     Li1404    10.01   .     S
Mg126     Na285    10.023   .     S
Mg126     Mg142    10.028   .     S
Na127     Mg128    9.997   .     S
Na127     O543    10.006   1_556     S
Na127     Mg78    10.023   1_556     S
Na127     Na131    10.028   .     S
Mg128     Li540    10.01   .     S
Mg128     Na77    10.023   1_556     S
Mg128     Mg132    10.028   .     S
Na129     Mg130    9.997   .     S
Na129     O575    10.006   1_565     S
Na129     Mg82    10.023   1_565     S
Na129     Na137    10.028   .     S
Mg130     Li572    10.01   .     S
Mg130     Na81    10.023   1_565     S
Mg130     Mg138    10.028   .     S
Na131     Mg132    9.997   .     S
Na131     O1423    10.006   .     S
Na131     Mg302    10.023   .     S
Mg132     Li1420    10.01   .     S
Mg132     Na301    10.023   .     S
Na133     Mg134    9.997   .     S
Na133     O607    10.006   1_565     S
Na133     Mg84    10.023   1_565     S
Mg134     Li604    10.01   .     S
Mg134     Na83    10.023   1_565     S
Na135     Mg136    9.997   .     S
Na135     O583    10.006   1_655     S
Na135     Mg86    10.023   1_655     S
Mg136     Li580    10.01   .     S
Mg136     Na85    10.023   1_655     S
Na137     Mg138    9.997   .     S
Na137     O547    10.006   .     S
Na137     Mg296    10.023   .     S
Mg138     Li550    10.01   .     S
Mg138     Na295    10.023   .     S
Na139     Mg140    9.997   .     S
Na139     O559    10.006   .     S
Na139     Mg306    10.023   .     S
Mg140     Li556    10.01   .     S
Mg140     Na305    10.023   .     S
Na141     Mg142    9.997   .     S
Na141     O599    10.006   1_655     S
Na141     Mg88    10.023   1_655     S
Mg142     Li596    10.01   .     S
Mg142     Na87    10.023   1_655     S
Na143     Mg144    9.997   .     S
Na143     O683    10.006   .     S
Na143     Mg356    10.023   .     S
Na143     Na147    10.028   .     S
Mg144     Li686    10.01   .     S
Mg144     Na355    10.023   .     S
Mg144     Mg148    10.028   .     S
Na145     Mg146    9.997   .     S
Na145     O1005    10.006   .     S
Na145     Mg346    10.023   .     S
Na145     Na167    10.028   .     S
Mg146     Li1002    10.01   .     S
Mg146     Na345    10.023   .     S
Mg146     Mg168    10.028   .     S
Na147     Mg148    9.997   .     S
Na147     O2055    10.006   .     S
Mg148     Li2050    10.01   .     S
Na149     Mg150    9.997   .     S
Na149     O1365    10.006   .     S
Na149     Mg340    10.023   .     S
Mg150     Li1364    10.01   .     S
Mg150     Na339    10.023   .     S
Na151     Mg152    9.997   .     S
Na151     O2949    10.006   .     S
Na151     Mg316    10.023   .     S
Na151     Na281    10.028   .     S
Mg152     Li2948    10.01   .     S
Mg152     Na315    10.023   .     S
Mg152     Mg282    10.028   .     S
Na153     Mg154    9.997   .     S
Na153     O1723    10.006   .     S
Na153     Mg354    10.023   .     S
Mg154     Li1726    10.01   .     S
Mg154     Na353    10.023   .     S
Na155     Mg156    9.997   .     S
Na155     O1731    10.006   .     S
Na155     Mg352    10.023   .     S
Na155     Na161    10.028   .     S
Mg156     Li1734    10.01   .     S
Mg156     Na351    10.023   .     S
Mg156     Mg162    10.028   .     S
Na157     Mg158    9.997   .     S
Na157     O1023    10.006   .     S
Na157     Na163    10.028   .     S
Mg158     Li1020    10.01   .     S
Mg158     Mg164    10.028   .     S
Na159     Mg160    9.997   .     S
Na159     O1739    10.006   .     S
Na159     Mg348    10.023   .     S
Na159     Na165    10.028   .     S
Mg160     Li1742    10.01   .     S
Mg160     Na347    10.023   .     S
Mg160     Mg166    10.028   .     S
Na161     Mg162    9.997   .     S
Na161     O1775    10.006   .     S
Mg162     Li1772    10.01   .     S
Na163     Mg164    9.997   .     S
Na163     O1747    10.006   .     S
Na163     Mg350    10.023   .     S
Mg164     Li1750    10.01   .     S
Mg164     Na349    10.023   .     S
Na165     Mg166    9.997   .     S
Na165     O591    10.006   .     S
Mg166     Li586    10.01   .     S
Na167     Mg168    9.997   .     S
Na167     O615    10.006   .     S
Mg168     Li612    10.01   .     S
Na169     Mg170    9.997   .     S
Na169     O721    10.006   .     S
Na169     Mg374    10.023   .     S
Mg170     Li726    10.01   .     S
Mg170     Na373    10.023   .     S
Na171     Mg172    9.997   .     S
Na171     O1357    10.006   .     S
Na171     Mg328    10.023   .     S
Na171     Na181    10.028   .     S
Mg172     Li1356    10.01   .     S
Mg172     Na327    10.023   .     S
Mg172     Mg182    10.028   .     S
Na173     Mg174    9.997   .     S
Na173     O1373    10.006   .     S
Na173     Mg330    10.023   .     S
Mg174     Li1372    10.01   .     S
Mg174     Na329    10.023   .     S
Na175     Mg176    9.997   .     S
Na175     O401    10.006   .     S
Na175     Mg380    10.023   .     S
Mg176     Li406    10.01   .     S
Mg176     Na379    10.023   .     S
Na177     Mg178    9.997   .     S
Na177     O693    10.006   .     S
Na177     Mg334    10.023   .     S
Na177     Na185    10.028   .     S
Mg178     Li690    10.01   .     S
Mg178     Na333    10.023   .     S
Mg178     Mg186    10.028   .     S
Na179     Mg180    9.997   .     S
Na179     O1349    10.006   .     S
Na179     Mg336    10.023   .     S
Mg180     Li1348    10.01   .     S
Mg180     Na335    10.023   .     S
Na181     Mg182    9.997   .     S
Na181     O1757    10.006   .     S
Na181     Mg326    10.023   .     S
Mg182     Li1754    10.01   .     S
Mg182     Na325    10.023   .     S
Na183     Mg184    9.997   .     S
Na183     O2653    10.006   .     S
Na183     Mg370    10.023   .     S
Mg184     Li2652    10.01   .     S
Mg184     Na369    10.023   .     S
Na185     Mg186    9.997   .     S
Na185     O1341    10.006   .     S
Na185     Mg338    10.023   .     S
Mg186     Li1340    10.01   .     S
Mg186     Na337    10.023   .     S
Na187     Mg188    9.997   .     S
Na187     O391    10.006   .     S
Na187     Na361    10.028   .     S
Mg188     Li386    10.01   .     S
Mg188     Mg362    10.028   .     S
Na189     Mg190    9.997   .     S
Na189     O471    10.006   .     S
Na189     Na253    10.028   .     S
Mg190     Li468    10.01   .     S
Mg190     Mg254    10.028   .     S
Na191     Mg192    9.997   .     S
Na191     O2989    10.006   .     S
Na191     Mg376    10.023   .     S
Mg192     Li2988    10.01   .     S
Mg192     Na375    10.023   .     S
Na193     Mg194    9.997   .     S
Na193     O2993    10.006   .     S
Na193     Mg314    10.023   .     S
Na193     Na251    10.028   .     S
Mg194     Li2998    10.01   .     S
Mg194     Na313    10.023   .     S
Mg194     Mg252    10.028   .     S
Na195     Mg196    9.997   .     S
Na195     O491    10.006   .     S
Na195     Mg258    10.023   .     S
Na195     Na319    10.028   .     S
Mg196     Li496    10.01   .     S
Mg196     Na257    10.023   .     S
Mg196     Mg320    10.028   .     S
Na197     Mg198    9.997   .     S
Na197     O399    10.006   .     S
Na197     Mg212    10.023   .     S
Na197     Na359    10.028   .     S
Mg198     Li396    10.01   .     S
Mg198     Na211    10.023   .     S
Mg198     Mg360    10.028   .     S
Na199     Mg200    9.997   .     S
Na199     O2647    10.006   .     S
Na199     Mg220    10.023   .     S
Na199     Na235    10.028   .     S
Mg200     Li2642    10.01   .     S
Mg200     Na219    10.023   .     S
Mg200     Mg236    10.028   .     S
Na201     Mg202    9.997   .     S
Na201     O487    10.006   1_565     S
Na201     Mg60    10.023   1_565     S
Mg202     Li484    10.01   .     S
Mg202     Na59    10.023   1_565     S
Na203     Mg204    9.997   .     S
Na203     O625    10.006   .     S
Mg204     Li630    10.01   .     S
Na205     Mg206    9.997   .     S
Na205     O1295    10.006   .     S
Mg206     Li1292    10.01   .     S
Na207     Mg208    9.997   .     S
Na207     O673    10.006   .     S
Na207     Na211    10.028   .     S
Mg208     Li678    10.01   .     S
Mg208     Mg212    10.028   .     S
Na209     Mg210    9.997   .     S
Na209     O2955    10.006   .     S
Na209     Mg262    10.023   .     S
Mg210     Li2958    10.01   .     S
Mg210     Na261    10.023   .     S
Na211     Mg212    9.997   .     S
Na211     O393    10.006   .     S
Mg212     Li398    10.01   .     S
Na213     Mg214    9.997   .     S
Na213     O735    10.006   .     S
Na213     Mg268    10.023   .     S
Na213     Na349    10.028   .     S
Mg214     Li732    10.01   .     S
Mg214     Na267    10.023   .     S
Mg214     Mg350    10.028   .     S
Na215     Mg216    9.997   .     S
Na215     O2971    10.006   .     S
Na215     Mg294    10.023   .     S
Na215     Na309    10.028   .     S
Mg216     Li2976    10.01   .     S
Mg216     Na293    10.023   .     S
Mg216     Mg310    10.028   .     S
Na217     Mg218    9.997   .     S
Na217     O439    10.006   .     S
Na217     Mg270    10.023   .     S
Na217     Na327    10.028   .     S
Mg218     Li436    10.01   .     S
Mg218     Na269    10.023   .     S
Mg218     Mg328    10.028   .     S
Na219     Mg220    9.997   .     S
Na219     O2643    10.006   .     S
Na219     Na255    10.028   .     S
Mg220     Li2646    10.01   .     S
Mg220     Mg256    10.028   .     S
Na221     Mg222    9.997   .     S
Na221     O2663    10.006   .     S
Na221     Mg272    10.023   .     S
Na221     Na351    10.028   .     S
Mg222     Li2660    10.01   .     S
Mg222     Na271    10.023   .     S
Mg222     Mg352    10.028   .     S
Na223     Mg224    9.997   .     S
Na223     O617    10.006   .     S
Na223     Mg384    10.023   .     S
Na223     Na341    10.028   .     S
Mg224     Li624    10.01   .     S
Mg224     Na383    10.023   .     S
Mg224     Mg342    10.028   .     S
Na225     Mg226    9.997   .     S
Na225     O447    10.006   .     S
Na225     Mg274    10.023   .     S
Na225     Na337    10.028   .     S
Mg226     Li444    10.01   .     S
Mg226     Na273    10.023   .     S
Mg226     Mg338    10.028   .     S
Na227     Mg228    9.997   .     S
Na227     O453    10.006   .     S
Na227     Mg310    10.023   .     S
Na227     Na241    10.028   .     S
Mg228     Li452    10.01   .     S
Mg228     Na309    10.023   .     S
Mg228     Mg242    10.028   .     S
Na229     Mg230    9.997   .     S
Na229     O669    10.006   .     S
Na229     Mg256    10.023   .     S
Na229     Na239    10.028   .     S
Mg230     Li668    10.01   .     S
Mg230     Na255    10.023   .     S
Mg230     Mg240    10.028   .     S
Na231     Mg232    9.997   .     S
Na231     O641    10.006   1_554     S
Na231     Mg358    10.023   1_554     S
Na231     Na383    10.028   .     S
Mg232     Li648    10.01   .     S
Mg232     Na357    10.023   1_554     S
Mg232     Mg384    10.028   .     S
Na233     Mg234    9.997   .     S
Na233     O1689    10.006   1_455     S
Na233     Mg360    10.023   1_455     S
Na233     Na293    10.028   .     S
Mg234     Li1696    10.01   .     S
Mg234     Na359    10.023   1_455     S
Mg234     Mg294    10.028   .     S
Na235     Mg236    9.997   .     S
Na235     O1697    10.006   1_545     S
Na235     Mg362    10.023   1_545     S
Mg236     Li1704    10.01   .     S
Mg236     Na361    10.023   1_545     S
Na237     Mg238    9.997   .     S
Na237     O1705    10.006   1_554     S
Na237     Mg364    10.023   1_554     S
Na237     Na343    10.028   .     S
Mg238     Li1712    10.01   .     S
Mg238     Na363    10.023   1_554     S
Mg238     Mg344    10.028   .     S
Na239     Mg240    9.997   .     S
Na239     O657    10.006   1_545     S
Na239     Mg366    10.023   1_545     S
Mg240     Li664    10.01   .     S
Mg240     Na365    10.023   1_545     S
Na241     Mg242    9.997   .     S
Na241     O1713    10.006   1_455     S
Na241     Mg368    10.023   1_455     S
Mg242     Li1720    10.01   .     S
Mg242     Na367    10.023   1_455     S
Na243     Mg244    9.997   .     S
Na243     O457    10.006   1_556     S
Na243     Mg46    10.023   1_556     S
Mg244     Li462    10.01   .     S
Mg244     Na45    10.023   1_556     S
Na245     Mg246    9.997   .     S
Na245     O497    10.006   1_655     S
Na245     Mg282    10.023   1_655     S
Mg246     Li504    10.01   .     S
Mg246     Na281    10.023   1_655     S
Na247     Mg248    9.997   .     S
Na247     O633    10.006   1_565     S
Na247     Mg52    10.023   1_565     S
Mg248     Li638    10.01   .     S
Mg248     Na51    10.023   1_565     S
Na249     Mg250    9.997   .     S
Na249     O1015    10.006   .     S
Na249     Mg308    10.023   .     S
Mg250     Li1010    10.01   .     S
Mg250     Na307    10.023   .     S
Na251     Mg252    9.997   .     S
Na251     O2979    10.006   .     S
Mg252     Li2982    10.01   .     S
Na253     Mg254    9.997   .     S
Na253     O2325    10.006   .     S
Mg254     Li2322    10.01   .     S
Na255     Mg256    9.997   .     S
Na255     O665    10.006   .     S
Mg256     Li672    10.01   .     S
Na257     Mg258    9.997   .     S
Na257     O493    10.006   .     S
Na257     Na345    10.028   .     S
Mg258     Li490    10.01   .     S
Mg258     Mg346    10.028   .     S
Na259     Mg260    9.997   .     S
Na259     O2329    10.006   .     S
Na259     Na371    10.028   .     S
Mg260     Li2334    10.01   .     S
Mg260     Mg372    10.028   .     S
Na261     Mg262    9.997   .     S
Na261     O2959    10.006   .     S
Na261     Na365    10.028   .     S
Mg262     Li2954    10.01   .     S
Mg262     Mg366    10.028   .     S
Na263     Mg264    9.997   .     S
Na263     O2047    10.006   .     S
Na263     Mg292    10.023   .     S
Mg264     Li2042    10.01   .     S
Mg264     Na291    10.023   .     S
Na265     Mg266    9.997   .     S
Na265     O1767    10.006   .     S
Na265     Mg298    10.023   .     S
Mg266     Li1762    10.01   .     S
Mg266     Na297    10.023   .     S
Na267     Mg268    9.997   .     S
Na267     O729    10.006   .     S
Na267     Na333    10.028   .     S
Mg268     Li734    10.01   .     S
Mg268     Mg334    10.028   .     S
Na269     Mg270    9.997   .     S
Na269     O433    10.006   .     S
Mg270     Li438    10.01   .     S
Na271     Mg272    9.997   .     S
Na271     O2657    10.006   .     S
Na271     Na325    10.028   .     S
Mg272     Li2662    10.01   .     S
Mg272     Mg326    10.028   .     S
Na273     Mg274    9.997   .     S
Na273     O441    10.006   .     S
Mg274     Li446    10.01   .     S
Na275     Mg276    9.997   .     S
Na275     O2629    10.006   1_565     S
Na275     Mg42    10.023   1_565     S
Mg276     Li2628    10.01   .     S
Mg276     Na41    10.023   1_565     S
Na277     Mg278    9.997   .     S
Na277     O701    10.006   .     S
Na277     Mg312    10.023   .     S
Mg278     Li700    10.01   .     S
Mg278     Na311    10.023   .     S
Na279     Mg280    9.997   .     S
Na279     O653    10.006   1_545     S
Na279     Mg32    10.023   1_545     S
Na279     Na381    10.028   .     S
Mg280     Li652    10.01   .     S
Mg280     Na31    10.023   1_545     S
Mg280     Mg382    10.028   .     S
Na281     Mg282    9.997   .     S
Na281     O501    10.006   1_455     S
Na281     Mg246    10.023   1_455     S
Mg282     Li500    10.01   .     S
Mg282     Na245    10.023   1_455     S
Na283     Mg284    9.997   .     S
Na283     O477    10.006   .     S
Na283     Mg318    10.023   .     S
Mg284     Li476    10.01   .     S
Mg284     Na317    10.023   .     S
Na285     Mg286    9.997   .     S
Na285     O1401    10.006   .     S
Na285     Na289    10.028   .     S
Mg286     Li1406    10.01   .     S
Mg286     Mg290    10.028   .     S
Na287     Mg288    9.997   .     S
Na287     O1409    10.006   .     S
Na287     Na295    10.028   .     S
Mg288     Li1414    10.01   .     S
Mg288     Mg296    10.028   .     S
Na289     Mg290    9.997   .     S
Na289     O527    10.006   .     S
Mg290     Li522    10.01   .     S
Na291     Mg292    9.997   .     S
Na291     O2043    10.006   .     S
Na291     Na375    10.028   .     S
Mg292     Li2046    10.01   .     S
Mg292     Mg376    10.028   .     S
Na293     Mg294    9.997   .     S
Na293     O2973    10.006   .     S
Mg294     Li2970    10.01   .     S
Na295     Mg296    9.997   .     S
Na295     O551    10.006   .     S
Mg296     Li546    10.01   .     S
Na297     Mg298    9.997   .     S
Na297     O1763    10.006   .     S
Na297     Na369    10.028   .     S
Mg298     Li1766    10.01   .     S
Mg298     Mg370    10.028   .     S
Na299     Mg300    9.997   .     S
Na299     O1397    10.006   .     S
Na299     Na329    10.028   .     S
Mg300     Li1396    10.01   .     S
Mg300     Mg330    10.028   .     S
Na301     Mg302    9.997   .     S
Na301     O1417    10.006   .     S
Na301     Na305    10.028   .     S
Mg302     Li1422    10.01   .     S
Mg302     Mg306    10.028   .     S
Na303     Mg304    9.997   .     S
Na303     O1389    10.006   .     S
Na303     Na335    10.028   .     S
Mg304     Li1388    10.01   .     S
Mg304     Mg336    10.028   .     S
Na305     Mg306    9.997   .     S
Na305     O553    10.006   .     S
Mg306     Li558    10.01   .     S
Na307     Mg308    9.997   .     S
Na307     O1011    10.006   .     S
Na307     Na373    10.028   .     S
Mg308     Li1014    10.01   .     S
Mg308     Mg374    10.028   .     S
Na309     Mg310    9.997   .     S
Na309     O449    10.006   .     S
Mg310     Li456    10.01   .     S
Na311     Mg312    9.997   .     S
Na311     O697    10.006   .     S
Mg312     Li704    10.01   .     S
Na313     Mg314    9.997   .     S
Na313     O2999    10.006   .     S
Na313     Na355    10.028   .     S
Mg314     Li2996    10.01   .     S
Mg314     Mg356    10.028   .     S
Na315     Mg316    9.997   .     S
Na315     O2945    10.006   .     S
Mg316     Li2952    10.01   .     S
Na317     Mg318    9.997   .     S
Na317     O473    10.006   .     S
Mg318     Li480    10.01   .     S
Na319     Mg320    9.997   .     S
Na319     O513    10.006   .     S
Mg320     Li518    10.01   .     S
Na321     Mg322    9.997   .     S
Na321     O2639    10.006   .     S
Mg322     Li2636    10.01   .     S
Na323     Mg324    9.997   .     S
Na323     O2963    10.006   .     S
Mg324     Li2968    10.01   .     S
Na325     Mg326    9.997   .     S
Na325     O1755    10.006   .     S
Mg326     Li1760    10.01   .     S
Na327     Mg328    9.997   .     S
Na327     O1353    10.006   .     S
Mg328     Li1360    10.01   .     S
Na329     Mg330    9.997   .     S
Na329     O1369    10.006   .     S
Mg330     Li1376    10.01   .     S
Na331     Mg332    9.997   .     S
Na331     O1297    10.006   .     S
Na331     Na379    10.028   .     S
Mg332     Li1304    10.01   .     S
Mg332     Mg380    10.028   .     S
Na333     Mg334    9.997   .     S
Na333     O691    10.006   .     S
Mg334     Li696    10.01   .     S
Na335     Mg336    9.997   .     S
Na335     O1345    10.006   .     S
Mg336     Li1352    10.01   .     S
Na337     Mg338    9.997   .     S
Na337     O1337    10.006   .     S
Mg338     Li1344    10.01   .     S
Na339     Mg340    9.997   .     S
Na339     O1361    10.006   .     S
Na339     Na377    10.028   .     S
Mg340     Li1368    10.01   .     S
Mg340     Mg378    10.028   .     S
Na341     Mg342    9.997   .     S
Na341     O2337    10.006   .     S
Na341     Mg344    10.023   .     S
Mg342     Li2344    10.01   .     S
Mg342     Na343    10.023   .     S
Na343     Mg344    9.997   .     S
Na343     O2341    10.006   .     S
Mg344     Li2340    10.01   .     S
Na345     Mg346    9.997   .     S
Na345     O1003    10.006   .     S
Mg346     Li1008    10.01   .     S
Na347     Mg348    9.997   .     S
Na347     O1743    10.006   .     S
Mg348     Li1738    10.01   .     S
Na349     Mg350    9.997   .     S
Na349     O1751    10.006   .     S
Mg350     Li1746    10.01   .     S
Na351     Mg352    9.997   .     S
Na351     O1735    10.006   .     S
Mg352     Li1730    10.01   .     S
Na353     Mg354    9.997   .     S
Na353     O1727    10.006   .     S
Mg354     Li1722    10.01   .     S
Na355     Mg356    9.997   .     S
Na355     O687    10.006   .     S
Mg356     Li682    10.01   .     S
Na357     Mg358    9.997   .     S
Na357     O645    10.006   1_556     S
Na357     Mg232    10.023   1_556     S
Mg358     Li644    10.01   .     S
Mg358     Na231    10.023   1_556     S
Na359     Mg360    9.997   .     S
Na359     O1693    10.006   1_655     S
Na359     Mg234    10.023   1_655     S
Mg360     Li1692    10.01   .     S
Mg360     Na233    10.023   1_655     S
Na361     Mg362    9.997   .     S
Na361     O1701    10.006   1_565     S
Na361     Mg236    10.023   1_565     S
Mg362     Li1700    10.01   .     S
Mg362     Na235    10.023   1_565     S
Na363     Mg364    9.997   .     S
Na363     O1709    10.006   1_556     S
Na363     Mg238    10.023   1_556     S
Mg364     Li1708    10.01   .     S
Mg364     Na237    10.023   1_556     S
Na365     Mg366    9.997   .     S
Na365     O661    10.006   1_565     S
Na365     Mg240    10.023   1_565     S
Mg366     Li660    10.01   .     S
Mg366     Na239    10.023   1_565     S
Na367     Mg368    9.997   .     S
Na367     O1717    10.006   1_655     S
Na367     Mg242    10.023   1_655     S
Mg368     Li1716    10.01   .     S
Mg368     Na241    10.023   1_655     S
Na369     Mg370    9.997   .     S
Na369     O2649    10.006   .     S
Mg370     Li2656    10.01   .     S
Na371     Mg372    9.997   .     S
Na371     O509    10.006   .     S
Mg372     Li506    10.01   .     S
Na373     Mg374    9.997   .     S
Na373     O727    10.006   .     S
Mg374     Li724    10.01   .     S
Na375     Mg376    9.997   .     S
Na375     O2985    10.006   .     S
Mg376     Li2992    10.01   .     S
Na377     Mg378    9.997   .     S
Na377     O1381    10.006   .     S
Mg378     Li1380    10.01   .     S
Na379     Mg380    9.997   .     S
Na379     O407    10.006   .     S
Mg380     Li404    10.01   .     S
Na381     Mg382    9.997   .     S
Na381     O719    10.006   .     S
Mg382     Li716    10.01   .     S
Na383     Mg384    9.997   .     S
Na383     O621    10.006   .     S
Mg384     Li620    10.01   .     S
H385     Li386    9.991   .     S
H385     F388    9.995   .     S
H385     F392    9.998   .     S
H385     He1104    10.001   .     S
Li386     O387    10.007   .     S
Li386     Be1103    10.016   .     S
O387     F388    9.992   .     S
O387     N3189    10.013   .     S
F388     H389    9.998   .     S
F388     Ne3190    10.001   .     S
H389     Li390    9.991   .     S
H389     F392    9.995   .     S
H389     He3086    10.001   .     S
Li390     O391    10.007   .     S
Li390     Be3085    10.016   .     S
O391     F392    9.992   .     S
O391     N1153    10.013   .     S
F392     Ne1154    10.001   .     S
O393     F394    9.992   .     S
O393     Li396    10.007   .     S
O393     N923    10.013   .     S
F394     H395    9.995   .     S
F394     H397    9.998   .     S
F394     Ne924    10.001   .     S
H395     Li396    9.991   .     S
H395     F400    9.998   .     S
H395     He1856    10.001   .     S
Li396     Be1855    10.016   .     S
H397     Li398    9.991   .     S
H397     F400    9.995   .     S
H397     He822    10.001   .     S
Li398     O399    10.007   .     S
Li398     Be821    10.016   .     S
O399     F400    9.992   .     S
O399     N1899    10.013   .     S
F400     Ne1900    10.001   .     S
O401     F402    9.992   .     S
O401     Li404    10.007   .     S
O401     N2245    10.013   .     S
F402     H403    9.995   .     S
F402     H405    9.998   .     S
F402     Ne2246    10.001   .     S
H403     Li404    9.991   .     S
H403     F408    9.998   .     S
H403     He1504    10.001   .     S
Li404     Be1503    10.016   .     S
H405     Li406    9.991   .     S
H405     F408    9.995   .     S
H405     He2142    10.001   .     S
Li406     O407    10.007   .     S
Li406     Be2141    10.016   .     S
O407     F408    9.992   .     S
O407     N1551    10.013   .     S
F408     Ne1552    10.001   .     S
O409     F410    9.992   1_554     S
O409     Na27    10.006   1_554     S
O409     Li412    10.007   .     S
O409     N2227    10.013   1_554     S
F410     O409    9.992   1_556     S
F410     H411    9.995   1_556     S
F410     H415    9.998   .     S
F410     Ne2228    10.001   .     S
H411     Li412    9.991   .     S
H411     F410    9.995   1_554     S
H411     F414    9.998   .     S
H411     He3104    10.001   .     S
Li412     Be3103    10.016   .     S
O413     F414    9.992   1_556     S
O413     Na47    10.006   1_556     S
O413     Li416    10.007   .     S
O413     N3159    10.013   1_556     S
F414     O413    9.992   1_554     S
F414     H415    9.995   1_554     S
F414     Ne3160    10.001   .     S
H415     Li416    9.991   .     S
H415     F414    9.995   1_556     S
H415     He2112    10.001   .     S
Li416     Be2111    10.016   .     S
O417     F418    9.992   1_455     S
O417     Na29    10.006   1_455     S
O417     Li420    10.007   .     S
O417     N1947    10.013   1_455     S
F418     O417    9.992   1_655     S
F418     H419    9.995   1_655     S
F418     H423    9.998   .     S
F418     Ne1948    10.001   .     S
H419     Li420    9.991   .     S
H419     F418    9.995   1_455     S
H419     F422    9.998   .     S
H419     He2774    10.001   .     S
Li420     Be2773    10.016   .     S
O421     F422    9.992   1_655     S
O421     Na49    10.006   1_655     S
O421     Li424    10.007   .     S
O421     N2811    10.013   1_655     S
F422     O421    9.992   1_455     S
F422     H423    9.995   1_455     S
F422     Ne2812    10.001   .     S
H423     Li424    9.991   .     S
H423     F422    9.995   1_655     S
H423     He1832    10.001   .     S
Li424     Be1831    10.016   .     S
O425     F426    9.992   .     S
O425     Li428    10.007   .     S
O425     N1589    10.013   .     S
F426     H427    9.995   .     S
F426     H431    9.998   .     S
F426     Ne1590    10.001   .     S
H427     Li428    9.991   .     S
H427     F430    9.998   .     S
H427     He1110    10.001   .     S
Li428     Be1109    10.016   .     S
O429     F430    9.992   .     S
O429     Li432    10.007   .     S
O429     N1201    10.013   .     S
F430     H431    9.995   .     S
F430     Ne1202    10.001   .     S
H431     Li432    9.991   .     S
H431     He1531    10.001   .     S
Li432     Be1530    10.016   .     S
O433     F434    9.992   .     S
O433     Li436    10.007   .     S
O433     N1959    10.013   .     S
F434     H435    9.995   .     S
F434     H437    9.998   .     S
F434     Ne1960    10.001   .     S
H435     Li436    9.991   .     S
H435     F440    9.998   .     S
H435     He1540    10.001   .     S
Li436     Be1539    10.016   .     S
H437     Li438    9.991   .     S
H437     F440    9.995   .     S
H437     He1868    10.001   .     S
Li438     O439    10.007   .     S
Li438     Be1867    10.016   .     S
O439     F440    9.992   .     S
O439     N1545    10.013   .     S
F440     Ne1546    10.001   .     S
O441     F442    9.992   .     S
O441     Li444    10.007   .     S
O441     N1207    10.013   .     S
F442     H443    9.995   .     S
F442     H445    9.998   .     S
F442     Ne1208    10.001   .     S
H443     Li444    9.991   .     S
H443     F448    9.998   .     S
H443     He1543    10.001   .     S
Li444     Be1542    10.016   .     S
H445     Li446    9.991   .     S
H445     F448    9.995   .     S
H445     He1116    10.001   .     S
Li446     O447    10.007   .     S
Li446     Be1115    10.016   .     S
O447     F448    9.992   .     S
O447     N1559    10.013   .     S
F448     Ne1560    10.001   .     S
O449     F450    9.992   .     S
O449     Li452    10.007   .     S
O449     N2479    10.013   .     S
F450     H451    9.995   .     S
F450     H455    9.998   .     S
F450     Ne2480    10.001   .     S
H451     Li452    9.991   .     S
H451     F454    9.998   .     S
H451     He2732    10.001   .     S
Li452     Be2731    10.016   .     S
O453     F454    9.992   .     S
O453     Li456    10.007   .     S
O453     N2821    10.013   .     S
F454     H455    9.995   .     S
F454     Ne2822    10.001   .     S
H455     Li456    9.991   .     S
H455     He2421    10.001   .     S
Li456     Be2420    10.016   .     S
O457     Na243    10.006   1_554     S
O457     F458    9.992   1_554     S
O457     Li460    10.007   .     S
O457     N1953    10.013   1_554     S
F458     O457    9.992   1_556     S
F458     H459    9.995   1_556     S
F458     H461    9.998   .     S
F458     Ne1954    10.001   .     S
H459     Li460    9.991   .     S
H459     F458    9.995   1_554     S
H459     F464    9.998   .     S
H459     He804    10.001   .     S
Li460     Be803    10.016   .     S
H461     Li462    9.991   .     S
H461     F464    9.995   1_556     S
H461     He1835    10.001   .     S
Li462     O463    10.007   .     S
Li462     Be1834    10.016   .     S
O463     F464    9.992   1_556     S
O463     Na45    10.006   1_556     S
O463     N883    10.013   1_556     S
F464     O463    9.992   1_554     S
F464     H461    9.995   1_554     S
F464     Ne884    10.001   .     S
O465     F466    9.992   .     S
O465     Li468    10.007   .     S
O465     N2207    10.013   .     S
F466     H467    9.995   .     S
F466     H469    9.998   .     S
F466     Ne2208    10.001   .     S
H467     Li468    9.991   .     S
H467     F472    9.998   .     S
H467     He3080    10.001   .     S
Li468     Be3079    10.016   .     S
H469     Li470    9.991   .     S
H469     F472    9.995   .     S
H469     He2163    10.001   .     S
Li470     O471    10.007   .     S
Li470     Be2162    10.016   .     S
O471     F472    9.992   .     S
O471     N3169    10.013   .     S
F472     Ne3170    10.001   .     S
O473     F474    9.992   .     S
O473     Li476    10.007   .     S
O473     N2497    10.013   .     S
F474     H475    9.995   .     S
F474     H479    9.998   .     S
F474     Ne2498    10.001   .     S
H475     Li476    9.991   .     S
H475     F478    9.998   .     S
H475     He2741    10.001   .     S
Li476     Be2740    10.016   .     S
O477     F478    9.992   .     S
O477     Li480    10.007   .     S
O477     N2827    10.013   .     S
F478     H479    9.995   .     S
F478     Ne2828    10.001   .     S
H479     Li480    9.991   .     S
H479     He2424    10.001   .     S
Li480     Be2423    10.016   .     S
O481     F482    9.992   1_565     S
O481     Na59    10.006   1_565     S
O481     Li484    10.007   .     S
O481     N919    10.013   1_565     S
F482     O481    9.992   1_545     S
F482     H483    9.995   1_545     S
F482     H485    9.998   .     S
F482     Ne920    10.001   .     S
H483     Li484    9.991   .     S
H483     F482    9.995   1_565     S
H483     F488    9.998   .     S
H483     He1107    10.001   .     S
Li484     Be1106    10.016   .     S
H485     Li486    9.991   .     S
H485     F488    9.995   1_545     S
H485     He834    10.001   .     S
Li486     O487    10.007   .     S
Li486     Be833    10.016   .     S
O487     F488    9.992   1_545     S
O487     Na201    10.006   1_545     S
O487     N1145    10.013   1_545     S
F488     O487    9.992   1_565     S
F488     H485    9.995   1_565     S
F488     Ne1146    10.001   .     S
H489     Li490    9.991   .     S
H489     F492    9.995   .     S
H489     F494    9.998   .     S
H489     He1131    10.001   .     S
Li490     O491    10.007   .     S
Li490     Be1130    10.016   .     S
O491     F492    9.992   .     S
O491     N911    10.013   .     S
F492     H495    9.998   .     S
F492     Ne912    10.001   .     S
O493     F494    9.992   .     S
O493     Li496    10.007   .     S
O493     N1171    10.013   .     S
F494     H495    9.995   .     S
F494     Ne1172    10.001   .     S
H495     Li496    9.991   .     S
H495     He792    10.001   .     S
Li496     Be791    10.016   .     S
O497     Na245    10.006   1_455     S
O497     F498    9.992   1_455     S
O497     Li500    10.007   .     S
O497     N1199    10.013   1_455     S
F498     O497    9.992   1_655     S
F498     H499    9.995   1_655     S
F498     H503    9.998   .     S
F498     Ne1200    10.001   .     S
H499     Li500    9.991   .     S
H499     F498    9.995   1_455     S
H499     F502    9.998   .     S
H499     He3068    10.001   .     S
Li500     Be3067    10.016   .     S
O501     F502    9.992   1_655     S
O501     Na281    10.006   1_655     S
O501     Li504    10.007   .     S
O501     N3165    10.013   1_655     S
F502     O501    9.992   1_455     S
F502     H503    9.995   1_455     S
F502     Ne3166    10.001   .     S
H503     Li504    9.991   .     S
H503     F502    9.995   1_655     S
H503     He1086    10.001   .     S
Li504     Be1085    10.016   .     S
H505     Li506    9.991   .     S
H505     F508    9.995   .     S
H505     F510    9.998   .     S
H505     He2738    10.001   .     S
Li506     O507    10.007   .     S
Li506     Be2737    10.016   .     S
O507     F508    9.992   .     S
O507     N1935    10.013   .     S
F508     H511    9.998   .     S
F508     Ne1936    10.001   .     S
O509     F510    9.992   .     S
O509     Li512    10.007   .     S
O509     N2833    10.013   .     S
F510     H511    9.995   .     S
F510     Ne2834    10.001   .     S
H511     Li512    9.991   .     S
H511     He1853    10.001   .     S
Li512     Be1852    10.016   .     S
O513     F514    9.992   .     S
O513     Li516    10.007   .     S
O513     N913    10.013   .     S
F514     H515    9.995   .     S
F514     H517    9.998   .     S
F514     Ne914    10.001   .     S
H515     Li516    9.991   .     S
H515     F520    9.998   .     S
H515     He2448    10.001   .     S
Li516     Be2447    10.016   .     S
H517     Li518    9.991   .     S
H517     F520    9.995   .     S
H517     He816    10.001   .     S
Li518     O519    10.007   .     S
Li518     Be815    10.016   .     S
O519     F520    9.992   .     S
O519     N2515    10.013   .     S
F520     Ne2516    10.001   .     S
H521     Li522    9.991   .     S
H521     F524    9.995   .     S
H521     F528    9.998   .     S
H521     He1477    10.001   .     S
Li522     O523    10.007   .     S
Li522     Be1476    10.016   .     S
O523     F524    9.992   .     S
O523     N1165    10.013   .     S
F524     H525    9.998   .     S
F524     Ne1166    10.001   .     S
H525     Li526    9.991   .     S
H525     F528    9.995   .     S
H525     He1077    10.001   .     S
Li526     O527    10.007   .     S
Li526     Be1076    10.016   .     S
O527     F528    9.992   .     S
O527     N1593    10.013   .     S
F528     Ne1594    10.001   .     S
H529     Li530    9.991   .     S
H529     F532    9.995   .     S
H529     F536    9.998   .     S
H529     He3089    10.001   .     S
Li530     O531    10.007   .     S
Li530     Be3088    10.016   .     S
O531     F532    9.992   .     S
O531     N2239    10.013   .     S
F532     H533    9.998   .     S
F532     Ne2240    10.001   .     S
H533     Li534    9.991   .     S
H533     F536    9.995   .     S
H533     He2136    10.001   .     S
Li534     O535    10.007   .     S
Li534     Be2135    10.016   .     S
O535     F536    9.992   .     S
O535     N3123    10.013   .     S
F536     Ne3124    10.001   .     S
O537     F538    9.992   1_556     S
O537     Na77    10.006   1_556     S
O537     Li540    10.007   .     S
O537     N865    10.013   1_556     S
F538     O537    9.992   1_554     S
F538     H539    9.995   1_554     S
F538     H541    9.998   .     S
F538     Ne866    10.001   .     S
H539     Li540    9.991   .     S
H539     F538    9.995   1_556     S
H539     F544    9.998   .     S
H539     He2118    10.001   .     S
Li540     Be2117    10.016   .     S
H541     Li542    9.991   .     S
H541     F544    9.995   1_554     S
H541     He795    10.001   .     S
Li542     O543    10.007   .     S
Li542     Be794    10.016   .     S
O543     Na127    10.006   1_554     S
O543     F544    9.992   1_554     S
O543     N2213    10.013   1_554     S
F544     O543    9.992   1_556     S
F544     H541    9.995   1_556     S
F544     Ne2214    10.001   .     S
H545     Li546    9.991   .     S
H545     F548    9.995   .     S
H545     F552    9.998   .     S
H545     He1483    10.001   .     S
Li546     O547    10.007   .     S
Li546     Be1482    10.016   .     S
O547     F548    9.992   .     S
O547     N2191    10.013   .     S
F548     H549    9.998   .     S
F548     Ne2192    10.001   .     S
H549     Li550    9.991   .     S
H549     F552    9.995   .     S
H549     He2106    10.001   .     S
Li550     O551    10.007   .     S
Li550     Be2105    10.016   .     S
O551     F552    9.992   .     S
O551     N1607    10.013   .     S
F552     Ne1608    10.001   .     S
O553     F554    9.992   .     S
O553     Li556    10.007   .     S
O553     N1613    10.013   .     S
F554     H555    9.995   .     S
F554     H557    9.998   .     S
F554     Ne1614    10.001   .     S
H555     Li556    9.991   .     S
H555     F560    9.998   .     S
H555     He1829    10.001   .     S
Li556     Be1828    10.016   .     S
H557     Li558    9.991   .     S
H557     F560    9.995   .     S
H557     He1486    10.001   .     S
Li558     O559    10.007   .     S
Li558     Be1485    10.016   .     S
O559     F560    9.992   .     S
O559     N1911    10.013   .     S
F560     Ne1912    10.001   .     S
O561     F562    9.992   1_556     S
O561     Na79    10.006   1_556     S
O561     Li564    10.007   .     S
O561     N3147    10.013   1_556     S
F562     O561    9.992   1_554     S
F562     H563    9.995   1_554     S
F562     H565    9.998   .     S
F562     Ne3148    10.001   .     S
H563     Li564    9.991   .     S
H563     F562    9.995   1_556     S
H563     F568    9.998   .     S
H563     He1838    10.001   .     S
Li564     Be1837    10.016   .     S
H565     Li566    9.991   .     S
H565     F568    9.995   1_554     S
H565     He3101    10.001   .     S
Li566     O567    10.007   .     S
Li566     Be3100    10.016   .     S
O567     F568    9.992   1_554     S
O567     Na43    10.006   1_554     S
O567     N1909    10.013   1_554     S
F568     O567    9.992   1_556     S
F568     H565    9.995   1_556     S
F568     Ne1910    10.001   .     S
O569     F570    9.992   1_565     S
O569     Na81    10.006   1_565     S
O569     Li572    10.007   .     S
O569     N877    10.013   1_565     S
F570     O569    9.992   1_545     S
F570     H571    9.995   1_545     S
F570     H573    9.998   .     S
F570     Ne878    10.001   .     S
H571     Li572    9.991   .     S
H571     F570    9.995   1_565     S
H571     F576    9.998   .     S
H571     He2121    10.001   .     S
Li572     Be2120    10.016   .     S
H573     Li574    9.991   .     S
H573     F576    9.995   1_545     S
H573     He801    10.001   .     S
Li574     O575    10.007   .     S
Li574     Be800    10.016   .     S
O575     Na129    10.006   1_545     S
O575     F576    9.992   1_545     S
O575     N2189    10.013   1_545     S
F576     O575    9.992   1_565     S
F576     H573    9.995   1_565     S
F576     Ne2190    10.001   .     S
O577     F578    9.992   1_655     S
O577     Na85    10.006   1_655     S
O577     Li580    10.007   .     S
O577     N2817    10.013   1_655     S
F578     O577    9.992   1_455     S
F578     H579    9.995   1_455     S
F578     H581    9.998   .     S
F578     Ne2818    10.001   .     S
H579     Li580    9.991   .     S
H579     F578    9.995   1_655     S
H579     F584    9.998   .     S
H579     He1083    10.001   .     S
Li580     Be1082    10.016   .     S
H581     Li582    9.991   .     S
H581     F584    9.995   1_455     S
H581     He2729    10.001   .     S
Li582     O583    10.007   .     S
Li582     Be2728    10.016   .     S
O583     Na135    10.006   1_455     S
O583     F584    9.992   1_455     S
O583     N1163    10.013   1_455     S
F584     O583    9.992   1_655     S
F584     H581    9.995   1_655     S
F584     Ne1164    10.001   .     S
H585     Li586    9.991   .     S
H585     F588    9.995   .     S
H585     F592    9.998   .     S
H585     He819    10.001   .     S
Li586     O587    10.007   .     S
Li586     Be818    10.016   .     S
O587     F588    9.992   .     S
O587     N1213    10.013   .     S
F588     H589    9.998   .     S
F588     Ne1214    10.001   .     S
H589     Li590    9.991   .     S
H589     F592    9.995   .     S
H589     He1137    10.001   .     S
Li590     O591    10.007   .     S
Li590     Be1136    10.016   .     S
O591     F592    9.992   .     S
O591     N859    10.013   .     S
F592     Ne860    10.001   .     S
O593     F594    9.992   1_655     S
O593     Na87    10.006   1_655     S
O593     Li596    10.007   .     S
O593     N3135    10.013   1_655     S
F594     O593    9.992   1_455     S
F594     H595    9.995   1_455     S
F594     H597    9.998   .     S
F594     Ne3136    10.001   .     S
H595     Li596    9.991   .     S
H595     F594    9.995   1_655     S
H595     F600    9.998   .     S
H595     He1841    10.001   .     S
Li596     Be1840    10.016   .     S
H597     Li598    9.991   .     S
H597     F600    9.995   1_455     S
H597     He3065    10.001   .     S
Li598     O599    10.007   .     S
Li598     Be3064    10.016   .     S
O599     Na141    10.006   1_455     S
O599     F600    9.992   1_455     S
O599     N1929    10.013   1_455     S
F600     O599    9.992   1_655     S
F600     H597    9.995   1_655     S
F600     Ne1930    10.001   .     S
O601     F602    9.992   1_565     S
O601     Na83    10.006   1_565     S
O601     Li604    10.007   .     S
O601     N2793    10.013   1_565     S
F602     O601    9.992   1_545     S
F602     H603    9.995   1_545     S
F602     H605    9.998   .     S
F602     Ne2794    10.001   .     S
H603     Li604    9.991   .     S
H603     F602    9.995   1_565     S
H603     F608    9.998   .     S
H603     He1089    10.001   .     S
Li604     Be1088    10.016   .     S
H605     Li606    9.991   .     S
H605     F608    9.995   1_545     S
H605     He2726    10.001   .     S
Li606     O607    10.007   .     S
Li606     Be2725    10.016   .     S
O607     Na133    10.006   1_545     S
O607     F608    9.992   1_545     S
O607     N1183    10.013   1_545     S
F608     O607    9.992   1_565     S
F608     H605    9.995   1_565     S
F608     Ne1184    10.001   .     S
O609     F610    9.992   .     S
O609     Li612    10.007   .     S
O609     N1965    10.013   .     S
F610     H611    9.995   .     S
F610     H613    9.998   .     S
F610     Ne1966    10.001   .     S
H611     Li612    9.991   .     S
H611     F616    9.998   .     S
H611     He2753    10.001   .     S
Li612     Be2752    10.016   .     S
H613     Li614    9.991   .     S
H613     F616    9.995   .     S
H613     He1889    10.001   .     S
Li614     O615    10.007   .     S
Li614     Be1888    10.016   .     S
O615     F616    9.992   .     S
O615     N2787    10.013   .     S
F616     Ne2788    10.001   .     S
O617     F618    9.992   .     S
O617     Li620    10.007   .     S
O617     N2507    10.013   .     S
F618     H619    9.995   .     S
F618     H623    9.998   .     S
F618     Ne2508    10.001   .     S
H619     Li620    9.991   .     S
H619     F622    9.998   .     S
H619     He855    10.001   .     S
Li620     Be854    10.016   .     S
O621     F622    9.992   .     S
O621     Li624    10.007   .     S
O621     N869    10.013   .     S
F622     H623    9.995   .     S
F622     Ne870    10.001   .     S
H623     Li624    9.991   .     S
H623     He2436    10.001   .     S
Li624     Be2435    10.016   .     S
O625     F626    9.992   .     S
O625     Li628    10.007   .     S
O625     N2851    10.013   .     S
F626     H627    9.995   .     S
F626     H629    9.998   .     S
F626     Ne2852    10.001   .     S
H627     Li628    9.991   .     S
H627     F632    9.998   .     S
H627     He1850    10.001   .     S
Li628     Be1849    10.016   .     S
H629     Li630    9.991   .     S
H629     F632    9.995   .     S
H629     He2723    10.001   .     S
Li630     O631    10.007   .     S
Li630     Be2722    10.016   .     S
O631     F632    9.992   .     S
O631     N1917    10.013   .     S
F632     Ne1918    10.001   .     S
O633     Na247    10.006   1_545     S
O633     F634    9.992   1_545     S
O633     Li636    10.007   .     S
O633     N2231    10.013   1_545     S
F634     O633    9.992   1_565     S
F634     H635    9.995   1_565     S
F634     H637    9.998   .     S
F634     Ne2232    10.001   .     S
H635     Li636    9.991   .     S
H635     F634    9.995   1_545     S
H635     F640    9.998   .     S
H635     He2744    10.001   .     S
Li636     Be2743    10.016   .     S
H637     Li638    9.991   .     S
H637     F640    9.995   1_565     S
H637     He2115    10.001   .     S
Li638     O639    10.007   .     S
Li638     Be2114    10.016   .     S
O639     F640    9.992   1_565     S
O639     Na51    10.006   1_565     S
O639     N2829    10.013   1_565     S
F640     O639    9.992   1_545     S
F640     H637    9.995   1_545     S
F640     Ne2830    10.001   .     S
O641     F642    9.992   1_556     S
O641     Na231    10.006   1_556     S
O641     Li644    10.007   .     S
O641     N871    10.013   1_556     S
F642     O641    9.992   1_554     S
F642     H643    9.995   1_554     S
F642     H647    9.998   .     S
F642     Ne872    10.001   .     S
H643     Li644    9.991   .     S
H643     F642    9.995   1_556     S
H643     F646    9.998   .     S
H643     He2124    10.001   .     S
Li644     Be2123    10.016   .     S
O645     Na357    10.006   1_554     S
O645     F646    9.992   1_554     S
O645     Li648    10.007   .     S
O645     N2177    10.013   1_554     S
F646     O645    9.992   1_556     S
F646     H647    9.995   1_556     S
F646     Ne2178    10.001   .     S
H647     Li648    9.991   .     S
H647     F646    9.995   1_554     S
H647     He837    10.001   .     S
Li648     Be836    10.016   .     S
O649     F650    9.992   1_545     S
O649     Na31    10.006   1_545     S
O649     Li652    10.007   .     S
O649     N1193    10.013   1_545     S
F650     O649    9.992   1_565     S
F650     H651    9.995   1_565     S
F650     H655    9.998   .     S
F650     Ne1194    10.001   .     S
H651     Li652    9.991   .     S
H651     F650    9.995   1_545     S
H651     F654    9.998   .     S
H651     He831    10.001   .     S
Li652     Be830    10.016   .     S
O653     F654    9.992   1_565     S
O653     Na279    10.006   1_565     S
O653     Li656    10.007   .     S
O653     N901    10.013   1_565     S
F654     O653    9.992   1_545     S
F654     H655    9.995   1_545     S
F654     Ne902    10.001   .     S
H655     Li656    9.991   .     S
H655     F654    9.995   1_565     S
H655     He1080    10.001   .     S
Li656     Be1079    10.016   .     S
O657     F658    9.992   1_565     S
O657     Na239    10.006   1_565     S
O657     Li660    10.007   .     S
O657     N889    10.013   1_565     S
F658     O657    9.992   1_545     S
F658     H659    9.995   1_545     S
F658     H663    9.998   .     S
F658     Ne890    10.001   .     S
H659     Li660    9.991   .     S
H659     F658    9.995   1_565     S
H659     F662    9.998   .     S
H659     He2127    10.001   .     S
Li660     Be2126    10.016   .     S
O661     Na365    10.006   1_545     S
O661     F662    9.992   1_545     S
O661     Li664    10.007   .     S
O661     N2195    10.013   1_545     S
F662     O661    9.992   1_565     S
F662     H663    9.995   1_565     S
F662     Ne2196    10.001   .     S
H663     Li664    9.991   .     S
H663     F662    9.995   1_545     S
H663     He840    10.001   .     S
Li664     Be839    10.016   .     S
O665     F666    9.992   .     S
O665     Li668    10.007   .     S
O665     N2489    10.013   .     S
F666     H667    9.995   .     S
F666     H671    9.998   .     S
F666     Ne2490    10.001   .     S
H667     Li668    9.991   .     S
H667     F670    9.998   .     S
H667     He852    10.001   .     S
Li668     Be851    10.016   .     S
O669     F670    9.992   .     S
O669     Li672    10.007   .     S
O669     N887    10.013   .     S
F670     H671    9.995   .     S
F670     Ne888    10.001   .     S
H671     Li672    9.991   .     S
H671     He2427    10.001   .     S
Li672     Be2426    10.016   .     S
O673     F674    9.992   .     S
O673     Li676    10.007   .     S
O673     N925    10.013   .     S
F674     H675    9.995   .     S
F674     H677    9.998   .     S
F674     Ne926    10.001   .     S
H675     Li676    9.991   .     S
H675     F680    9.998   .     S
H675     He1122    10.001   .     S
Li676     Be1121    10.016   .     S
H677     Li678    9.991   .     S
H677     F680    9.995   .     S
H677     He798    10.001   .     S
Li678     O679    10.007   .     S
Li678     Be797    10.016   .     S
O679     F680    9.992   .     S
O679     N1159    10.013   .     S
F680     Ne1160    10.001   .     S
H681     Li682    9.991   .     S
H681     F684    9.995   .     S
H681     F688    9.998   .     S
H681     He1098    10.001   .     S
Li682     O683    10.007   .     S
Li682     Be1097    10.016   .     S
O683     F684    9.992   .     S
O683     N2803    10.013   .     S
F684     H685    9.998   .     S
F684     Ne2804    10.001   .     S
H685     Li686    9.991   .     S
H685     F688    9.995   .     S
H685     He2783    10.001   .     S
Li686     O687    10.007   .     S
Li686     Be2782    10.016   .     S
O687     F688    9.992   .     S
O687     N1175    10.013   .     S
F688     Ne1176    10.001   .     S
H689     Li690    9.991   .     S
H689     F692    9.995   .     S
H689     F694    9.998   .     S
H689     He2445    10.001   .     S
Li690     O691    10.007   .     S
Li690     Be2444    10.016   .     S
O691     F692    9.992   .     S
O691     N907    10.013   .     S
F692     H695    9.998   .     S
F692     Ne908    10.001   .     S
O693     F694    9.992   .     S
O693     Li696    10.007   .     S
O693     N2521    10.013   .     S
F694     H695    9.995   .     S
F694     Ne2522    10.001   .     S
H695     Li696    9.991   .     S
H695     He789    10.001   .     S
Li696     Be788    10.016   .     S
O697     F698    9.992   .     S
O697     Li700    10.007   .     S
O697     N2503    10.013   .     S
F698     H699    9.995   .     S
F698     H703    9.998   .     S
F698     Ne2504    10.001   .     S
H699     Li700    9.991   .     S
H699     F702    9.998   .     S
H699     He846    10.001   .     S
Li700     Be845    10.016   .     S
O701     F702    9.992   .     S
O701     Li704    10.007   .     S
O701     N881    10.013   .     S
F702     H703    9.995   .     S
F702     Ne882    10.001   .     S
H703     Li704    9.991   .     S
H703     He2412    10.001   .     S
Li704     Be2411    10.016   .     S
O705     F706    9.992   1_556     S
O705     Na37    10.006   1_556     S
O705     Li708    10.007   .     S
O705     N917    10.013   1_556     S
F706     O705    9.992   1_554     S
F706     H707    9.995   1_554     S
F706     H711    9.998   .     S
F706     Ne918    10.001   .     S
H707     Li708    9.991   .     S
H707     F706    9.995   1_556     S
H707     F710    9.998   .     S
H707     He1877    10.001   .     S
Li708     Be1876    10.016   .     S
O709     Na67    10.006   1_554     S
O709     F710    9.992   1_554     S
O709     Li712    10.007   .     S
O709     N1905    10.013   1_554     S
F710     O709    9.992   1_556     S
F710     H711    9.995   1_556     S
F710     Ne1906    10.001   .     S
H711     Li712    9.991   .     S
H711     F710    9.995   1_554     S
H711     He807    10.001   .     S
Li712     Be806    10.016   .     S
O713     F714    9.992   .     S
O713     Li716    10.007   .     S
O713     N2495    10.013   .     S
F714     H715    9.995   .     S
F714     H717    9.998   .     S
F714     Ne2496    10.001   .     S
H715     Li716    9.991   .     S
H715     F720    9.998   .     S
H715     He825    10.001   .     S
Li716     Be824    10.016   .     S
H717     Li718    9.991   .     S
H717     F720    9.995   .     S
H717     He2460    10.001   .     S
Li718     O719    10.007   .     S
Li718     Be2459    10.016   .     S
O719     F720    9.992   .     S
O719     N899    10.013   .     S
F720     Ne900    10.001   .     S
O721     F722    9.992   .     S
O721     Li724    10.007   .     S
O721     N863    10.013   .     S
F722     H723    9.995   .     S
F722     H725    9.998   .     S
F722     Ne864    10.001   .     S
H723     Li724    9.991   .     S
H723     F728    9.998   .     S
H723     He1128    10.001   .     S
Li724     Be1127    10.016   .     S
H725     Li726    9.991   .     S
H725     F728    9.995   .     S
H725     He786    10.001   .     S
Li726     O727    10.007   .     S
Li726     Be785    10.016   .     S
O727     F728    9.992   .     S
O727     N1189    10.013   .     S
F728     Ne1190    10.001   .     S
O729     F730    9.992   .     S
O729     Li732    10.007   .     S
O729     N905    10.013   .     S
F730     H731    9.995   .     S
F730     H733    9.998   .     S
F730     Ne906    10.001   .     S
H731     Li732    9.991   .     S
H731     F736    9.998   .     S
H731     He1871    10.001   .     S
Li732     Be1870    10.016   .     S
H733     Li734    9.991   .     S
H733     F736    9.995   .     S
H733     He828    10.001   .     S
Li734     O735    10.007   .     S
Li734     Be827    10.016   .     S
O735     F736    9.992   .     S
O735     N1923    10.013   .     S
F736     Ne1924    10.001   .     S
S737     Ce738    9.988   1_545     S
S737     Er930    9.995   .     S
S737     Ne890    9.999   .     S
S737     S777    10.001   1_545     S
Ce738     S737    9.988   1_565     S
Ce738     N889    10.007   1_565     S
Ce738     Ce778    10.007   .     S
Ce738     Ce770    10.013   1_565     S
S739     Ce740    9.988   .     S
S739     Er938    9.995   .     S
S739     Ne896    9.999   .     S
S739     S751    10.001   1_556     S
Ce740     N895    10.007   .     S
Ce740     Ce752    10.007   .     S
Ce740     Ce742    10.013   .     S
S741     Ce742    9.988   .     S
S741     Er937    9.995   .     S
S741     Ne894    9.999   .     S
S741     S783    10.001   1_556     S
Ce742     N893    10.007   .     S
Ce742     Ce784    10.007   .     S
S743     Ce744    9.988   .     S
S743     Er933    9.995   .     S
S743     Ne870    9.999   .     S
S743     S779    10.001   .     S
Ce744     N869    10.007   .     S
Ce744     Ce780    10.007   .     S
Ce744     Ce784    10.013   1_554     S
S745     Ce746    9.988   .     S
S745     Er951    9.995   .     S
S745     Ne900    9.999   .     S
S745     S769    10.001   .     S
Ce746     N899    10.007   .     S
Ce746     Ce770    10.007   .     S
Ce746     Ce774    10.013   1_545     S
S747     Ce748    9.988   .     S
S747     Er948    9.995   .     S
S747     Ne912    9.999   .     S
S747     S759    10.001   .     S
Ce748     N911    10.007   .     S
Ce748     Ce760    10.007   .     S
Ce748     Ce766    10.013   .     S
S749     Ce750    9.988   .     S
S749     Er946    9.995   .     S
S749     Ne906    9.999   .     S
S749     S757    10.001   .     S
Ce750     N905    10.007   .     S
Ce750     Ce758    10.007   .     S
Ce750     Ce762    10.013   .     S
S751     Ce752    9.988   1_554     S
S751     Er943    9.995   .     S
S751     Ne884    9.999   .     S
S751     S739    10.001   1_554     S
Ce752     S751    9.988   1_556     S
Ce752     N883    10.007   1_556     S
Ce752     Ce780    10.013   1_556     S
S753     Ce754    9.988   1_545     S
S753     Er936    9.995   .     S
S753     Ne920    9.999   .     S
S753     S767    10.001   1_545     S
Ce754     S753    9.988   1_565     S
Ce754     N919    10.007   1_565     S
Ce754     Ce768    10.007   .     S
Ce754     Ce782    10.013   1_564     S
S755     Ce756    9.988   .     S
S755     Er941    9.995   .     S
S755     Ne876    9.999   .     S
S755     S781    10.001   1_556     S
Ce756     N875    10.007   .     S
Ce756     Ce782    10.007   .     S
Ce756     Ce776    10.013   1_545     S
S757     Ce758    9.988   .     S
S757     Er932    9.995   .     S
S757     Ne924    9.999   .     S
Ce758     N923    10.007   .     S
Ce758     Ce760    10.013   .     S
S759     Ce760    9.988   .     S
S759     Er931    9.995   .     S
S759     Ne926    9.999   .     S
Ce760     N925    10.007   .     S
S761     Ce762    9.988   .     S
S761     Er945    9.995   .     S
S761     Ne908    9.999   .     S
S761     S765    10.001   .     S
Ce762     N907    10.007   .     S
Ce762     Ce766    10.007   .     S
S763     Ce764    9.988   1_554     S
S763     Er949    9.995   .     S
S763     Ne866    9.999   .     S
S763     S775    10.001   1_564     S
Ce764     S763    9.988   1_556     S
Ce764     N865    10.007   1_556     S
Ce764     Ce776    10.007   .     S
Ce764     Ce768    10.013   1_556     S
S765     Ce766    9.988   .     S
S765     Er947    9.995   .     S
S765     Ne914    9.999   .     S
Ce766     N913    10.007   .     S
S767     Ce768    9.988   .     S
S767     Er950    9.995   .     S
S767     Ne864    9.999   .     S
S767     S753    10.001   1_565     S
Ce768     N863    10.007   .     S
Ce768     Ce764    10.013   1_554     S
S769     Ce770    9.988   .     S
S769     Er929    9.995   .     S
S769     Ne888    9.999   .     S
Ce770     N887    10.007   .     S
Ce770     Ce738    10.013   1_545     S
S771     Ce772    9.988   .     S
S771     Er939    9.995   .     S
S771     Ne860    9.999   .     S
S771     S773    10.001   1_565     S
Ce772     N859    10.007   .     S
Ce772     Ce774    10.007   .     S
Ce772     Ce778    10.013   .     S
S773     Ce774    9.988   1_545     S
S773     Er952    9.995   .     S
S773     Ne902    9.999   .     S
S773     S771    10.001   1_545     S
Ce774     S773    9.988   1_565     S
Ce774     N901    10.007   1_565     S
Ce774     Ce746    10.013   1_565     S
S775     Ce776    9.988   1_545     S
S775     Er942    9.995   .     S
S775     Ne878    9.999   .     S
S775     S763    10.001   1_546     S
Ce776     S775    9.988   1_565     S
Ce776     N877    10.007   1_565     S
Ce776     Ce756    10.013   1_565     S
S777     Ce778    9.988   .     S
S777     Er940    9.995   .     S
S777     Ne858    9.999   .     S
S777     S737    10.001   1_565     S
Ce778     N857    10.007   .     S
S779     Ce780    9.988   .     S
S779     Er944    9.995   .     S
S779     Ne882    9.999   .     S
Ce780     N881    10.007   .     S
Ce780     Ce752    10.013   1_554     S
S781     Ce782    9.988   1_554     S
S781     Er935    9.995   .     S
S781     Ne918    9.999   .     S
S781     S755    10.001   1_554     S
Ce782     S781    9.988   1_556     S
Ce782     N917    10.007   1_556     S
Ce782     Ce754    10.013   1_546     S
S783     Ce784    9.988   1_554     S
S783     Er934    9.995   .     S
S783     Ne872    9.999   .     S
S783     S741    10.001   1_554     S
Ce784     S783    9.988   1_556     S
Ce784     N871    10.007   1_556     S
Ce784     Ce744    10.013   1_556     S
Be785     He786    9.991   .     S
Be785     Be794    10.001   .     S
Be785     Be818    10.013   .     S
He786     C787    9.993   .     S
He786     He819    10.004   .     S
C787     B867    9.997   .     S
C787     C820    10.007   .     S
C787     C796    10.007   .     S
Be788     He789    9.991   .     S
Be788     Be827    10.001   .     S
Be788     Be845    10.013   .     S
He789     C790    9.993   .     S
He789     He846    10.004   .     S
C790     B909    9.997   .     S
C790     C847    10.007   .     S
C790     C829    10.007   .     S
Be791     He792    9.991   .     S
Be791     Be815    10.001   .     S
Be791     Be830    10.013   .     S
He792     C793    9.993   .     S
He792     He831    10.004   .     S
C793     B916    9.997   .     S
C793     C817    10.007   .     S
C793     C832    10.007   .     S
Be794     He795    9.991   .     S
Be794     Be842    10.013   .     S
He795     C796    9.993   .     S
He795     He843    10.004   .     S
C796     B868    9.997   .     S
C796     C844    10.007   .     S
Be797     He798    9.991   .     S
Be797     Be821    10.001   .     S
Be797     Be833    10.013   .     S
He798     C799    9.993   .     S
He798     He834    10.004   .     S
C799     B927    9.997   .     S
C799     C835    10.007   .     S
C799     C823    10.007   .     S
Be800     He801    9.991   .     S
Be800     Be809    10.001   .     S
Be800     Be848    10.013   .     S
He801     C802    9.993   .     S
He801     He849    10.004   .     S
C802     B879    9.997   .     S
C802     C850    10.007   .     S
C802     C811    10.007   .     S
Be803     He804    9.991   .     S
Be803     Be845    10.001   .     S
Be803     Be827    10.013   .     S
He804     C805    9.993   .     S
He804     He828    10.004   .     S
C805     B886    9.997   .     S
C805     C847    10.007   .     S
C805     C829    10.007   .     S
Be806     He807    9.991   .     S
Be806     Be833    10.001   .     S
Be806     Be821    10.013   .     S
He807     C808    9.993   .     S
He807     He822    10.004   .     S
C808     B921    9.997   .     S
C808     C823    10.007   .     S
C808     C835    10.007   .     S
Be809     He810    9.991   .     S
Be809     Be812    10.013   .     S
Be809     Li1762    10.016   .     S
He810     C811    9.993   .     S
He810     H1761    10.001   .     S
He810     He813    10.004   .     S
C811     B880    9.997   .     S
C811     C814    10.007   .     S
Be812     He813    9.991   .     S
Be812     Be848    10.001   .     S
Be812     Li1772    10.016   .     S
He813     C814    9.993   .     S
He813     H1771    10.001   .     S
C814     B898    9.997   .     S
C814     C850    10.007   .     S
Be815     He816    9.991   .     S
Be815     Be824    10.013   .     S
He816     C817    9.993   .     S
He816     He825    10.004   .     S
C817     B915    9.997   .     S
C817     C826    10.007   .     S
Be818     He819    9.991   .     S
Be818     Be842    10.001   .     S
He819     C820    9.993   .     S
C820     B861    9.997   .     S
C820     C844    10.007   .     S
Be821     He822    9.991   .     S
He822     C823    9.993   .     S
C823     B928    9.997   .     S
Be824     He825    9.991   .     S
Be824     Be830    10.001   .     S
He825     C826    9.993   .     S
C826     B903    9.997   .     S
C826     C832    10.007   .     S
Be827     He828    9.991   .     S
He828     C829    9.993   .     S
C829     B910    9.997   .     S
Be830     He831    9.991   .     S
He831     C832    9.993   .     S
C832     B904    9.997   .     S
Be833     He834    9.991   .     S
He834     C835    9.993   .     S
C835     B922    9.997   .     S
Be836     He837    9.991   .     S
Be836     Be854    10.001   .     S
Be836     Be839    10.013   .     S
He837     C838    9.993   .     S
He837     He840    10.004   .     S
C838     B874    9.997   .     S
C838     C841    10.007   .     S
C838     C856    10.007   .     S
Be839     He840    9.991   .     S
Be839     Be851    10.001   .     S
He840     C841    9.993   .     S
C841     B891    9.997   .     S
C841     C853    10.007   .     S
Be842     He843    9.991   .     S
Be842     Li1742    10.016   .     S
He843     C844    9.993   .     S
He843     H1741    10.001   .     S
C844     B862    9.997   .     S
Be845     He846    9.991   .     S
He846     C847    9.993   .     S
C847     B885    9.997   .     S
Be848     He849    9.991   .     S
Be848     Li1734    10.016   .     S
He849     C850    9.993   .     S
He849     H1733    10.001   .     S
C850     B897    9.997   .     S
Be851     He852    9.991   .     S
Be851     Be854    10.013   .     S
He852     C853    9.993   .     S
He852     He855    10.004   .     S
C853     B892    9.997   .     S
C853     C856    10.007   .     S
Be854     He855    9.991   .     S
He855     C856    9.993   .     S
C856     B873    9.997   .     S
N857     Ne858    9.989   .     S
N857     N859    10.001   .     S
N857     O1739    10.013   .     S
Ne858     B862    9.992   .     S
Ne858     F1740    10.001   .     S
N859     Ne860    9.989   .     S
Ne860     B861    9.992   .     S
B861     B862    9.989   .     S
B861     Er939    9.993   .     S
B862     Er940    9.993   .     S
N863     Ne864    9.989   .     S
N863     N865    10.001   .     S
Ne864     B867    9.992   .     S
N865     Ne866    9.989   .     S
N865     Ce764    10.007   1_554     S
N865     O537    10.013   1_554     S
Ne866     B868    9.992   .     S
B867     B868    9.989   .     S
B867     Er950    9.993   .     S
B868     Er949    9.993   .     S
N869     Ne870    9.989   .     S
N869     N871    10.001   .     S
Ne870     B873    9.992   .     S
N871     Ne872    9.989   .     S
N871     Ce784    10.007   1_554     S
N871     O641    10.013   1_554     S
Ne872     B874    9.992   .     S
B873     B874    9.989   .     S
B873     Er933    9.993   .     S
B874     Er934    9.993   .     S
N875     Ne876    9.989   .     S
N875     N877    10.001   .     S
N875     O1767    10.013   .     S
Ne876     B880    9.992   .     S
Ne876     F1768    10.001   .     S
N877     Ne878    9.989   .     S
N877     Ce776    10.007   1_545     S
N877     O569    10.013   1_545     S
Ne878     B879    9.992   .     S
B879     B880    9.989   .     S
B879     Er942    9.993   .     S
B880     Er941    9.993   .     S
N881     Ne882    9.989   .     S
N881     N883    10.001   .     S
Ne882     B885    9.992   .     S
N883     Ne884    9.989   .     S
N883     Ce752    10.007   1_554     S
N883     O463    10.013   1_554     S
Ne884     B886    9.992   .     S
B885     B886    9.989   .     S
B885     Er944    9.993   .     S
B886     Er943    9.993   .     S
N887     Ne888    9.989   .     S
N887     N889    10.001   .     S
Ne888     B892    9.992   .     S
N889     Ne890    9.989   .     S
N889     Ce738    10.007   1_545     S
N889     O657    10.013   1_545     S
Ne890     B891    9.992   .     S
B891     B892    9.989   .     S
B891     Er930    9.993   .     S
B892     Er929    9.993   .     S
N893     Ne894    9.989   .     S
N893     N895    10.001   .     S
N893     O1731    10.013   .     S
Ne894     B897    9.992   .     S
Ne894     F1732    10.001   .     S
N895     Ne896    9.989   .     S
N895     O1775    10.013   .     S
Ne896     B898    9.992   .     S
Ne896     F1776    10.001   .     S
B897     B898    9.989   .     S
B897     Er937    9.993   .     S
B898     Er938    9.993   .     S
N899     Ne900    9.989   .     S
N899     N901    10.001   .     S
Ne900     B903    9.992   .     S
N901     Ne902    9.989   .     S
N901     Ce774    10.007   1_545     S
N901     O653    10.013   1_545     S
Ne902     B904    9.992   .     S
B903     B904    9.989   .     S
B903     Er951    9.993   .     S
B904     Er952    9.993   .     S
N905     Ne906    9.989   .     S
N905     N907    10.001   .     S
Ne906     B910    9.992   .     S
N907     Ne908    9.989   .     S
Ne908     B909    9.992   .     S
B909     B910    9.989   .     S
B909     Er945    9.993   .     S
B910     Er946    9.993   .     S
N911     Ne912    9.989   .     S
N911     N913    10.001   .     S
Ne912     B916    9.992   .     S
N913     Ne914    9.989   .     S
Ne914     B915    9.992   .     S
B915     B916    9.989   .     S
B915     Er947    9.993   .     S
B916     Er948    9.993   .     S
N917     Ne918    9.989   .     S
N917     N919    10.001   .     S
N917     Ce782    10.007   1_554     S
N917     O705    10.013   1_554     S
Ne918     B921    9.992   .     S
N919     Ne920    9.989   .     S
N919     Ce754    10.007   1_545     S
N919     O481    10.013   1_545     S
Ne920     B922    9.992   .     S
B921     B922    9.989   .     S
B921     Er935    9.993   .     S
B922     Er936    9.993   .     S
N923     Ne924    9.989   .     S
N923     N925    10.001   .     S
Ne924     B928    9.992   .     S
N925     Ne926    9.989   .     S
Ne926     B927    9.992   .     S
B927     B928    9.989   .     S
B927     Er931    9.993   .     S
B928     Er932    9.993   .     S
Er929     Er930    9.986   .     S
Er929     Ti973    9.992   .     S
Er930     Ti974    9.992   .     S
Er931     Er932    9.986   .     S
Er931     Ti966    9.992   .     S
Er932     Ti965    9.992   .     S
Er933     Er934    9.986   .     S
Er933     Ti994    9.992   .     S
Er934     Ti993    9.992   .     S
Er935     Er936    9.986   .     S
Er935     Ti956    9.992   .     S
Er936     Ti955    9.992   .     S
Er937     Er938    9.986   .     S
Er937     Ti954    9.992   1_556     S
Er938     Ti953    9.992   1_556     S
Er939     Er940    9.986   .     S
Er939     Ti986    9.992   1_565     S
Er940     Ti985    9.992   1_565     S
Er941     Er942    9.986   .     S
Er941     Ti983    9.992   1_556     S
Er942     Ti984    9.992   1_556     S
Er943     Er944    9.986   .     S
Er943     Ti976    9.992   .     S
Er944     Ti975    9.992   .     S
Er945     Er946    9.986   .     S
Er945     Ti979    9.992   .     S
Er946     Ti980    9.992   .     S
Er947     Er948    9.986   .     S
Er947     Ti981    9.992   .     S
Er948     Ti982    9.992   .     S
Er949     Er950    9.986   .     S
Er949     Ti977    9.992   1_565     S
Er950     Ti978    9.992   1_565     S
Er951     Er952    9.986   .     S
Er951     Ti957    9.992   .     S
Er952     Ti958    9.992   .     S
Ti953     Er938    9.992   1_554     S
Ti953     Ti954    9.989   .     S
Ti953     V970    9.993   .     S
Ti953     Ti976    9.995   .     S
Ti954     Er937    9.992   1_554     S
Ti954     V997    9.993   .     S
Ti954     Ti993    9.995   .     S
Ti955     Ti956    9.989   .     S
Ti955     V960    9.993   .     S
Ti955     Ti978    9.995   .     S
Ti956     V972    9.993   .     S
Ti956     Ti983    9.995   .     S
Ti957     Ti958    9.989   .     S
Ti957     V989    9.993   .     S
Ti957     Ti973    9.995   .     S
Ti958     V961    9.993   .     S
Ti958     Ti986    9.995   .     S
V959     V960    9.986   .     S
V959     Ti978    9.993   .     S
V959     V962    9.992   .     S
V959     V1000    9.998   .     S
V960     V964    9.992   .     S
V960     V972    9.998   .     S
V961     V962    9.986   .     S
V961     V963    9.992   .     S
V961     V989    9.998   .     S
V962     Ti986    9.993   .     S
V962     V995    9.998   .     S
V963     V964    9.986   .     S
V963     Ti982    9.993   .     S
V963     V991    9.998   .     S
V964     Ti966    9.993   .     S
V964     V968    9.998   .     S
Ti965     Ti966    9.989   .     S
Ti965     V968    9.993   .     S
Ti965     Ti980    9.995   .     S
Ti966     Ti982    9.995   .     S
V967     V968    9.986   .     S
V967     Ti980    9.993   .     S
V967     V969    9.992   .     S
V967     V992    9.998   .     S
V968     V972    9.992   .     S
V969     V970    9.986   .     S
V969     Ti976    9.993   .     S
V969     V987    9.998   .     S
V970     V971    9.992   .     S
V970     V997    9.998   .     S
V971     V972    9.986   .     S
V971     Ti983    9.993   .     S
V971     V999    9.998   .     S
Ti973     Ti974    9.989   .     S
Ti973     V990    9.993   .     S
Ti974     V996    9.993   .     S
Ti974     Ti985    9.995   .     S
Ti975     Ti976    9.989   .     S
Ti975     V987    9.993   .     S
Ti975     Ti994    9.995   .     S
Ti977     Er949    9.992   1_545     S
Ti977     Ti978    9.989   .     S
Ti977     V1000    9.993   .     S
Ti977     Ti984    9.995   .     S
Ti978     Er950    9.992   1_545     S
Ti979     Ti980    9.989   .     S
Ti979     V992    9.993   .     S
Ti979     Ti981    9.995   .     S
Ti981     Ti982    9.989   .     S
Ti981     V991    9.993   .     S
Ti983     Er941    9.992   1_554     S
Ti983     Ti984    9.989   .     S
Ti984     Er942    9.992   1_554     S
Ti984     V999    9.993   .     S
Ti985     Er940    9.992   1_545     S
Ti985     Ti986    9.989   .     S
Ti985     V995    9.993   .     S
Ti986     Er939    9.992   1_545     S
V987     V988    9.986   .     S
V987     V992    9.992   .     S
V988     Ti994    9.993   .     S
V988     V990    9.992   .     S
V988     V998    9.998   .     S
V989     V990    9.986   .     S
V989     V991    9.992   .     S
V990     V996    9.998   .     S
V991     V992    9.986   .     S
Ti993     Ti994    9.989   .     S
Ti993     V998    9.993   .     S
V995     V996    9.986   .     S
V995     V1000    9.992   .     S
V996     V998    9.992   .     S
V997     V998    9.986   .     S
V997     V999    9.992   .     S
V999     V1000    9.986   .     S
H1001     Li1002    9.991   .     S
H1001     F1004    9.995   .     S
H1001     F1006    9.998   .     S
H1001     He2780    10.001   .     S
Li1002     O1003    10.007   .     S
Li1002     Be2779    10.016   .     S
O1003     F1004    9.992   .     S
O1003     N1169    10.013   .     S
F1004     H1007    9.998   .     S
F1004     Ne1170    10.001   .     S
O1005     F1006    9.992   .     S
O1005     Li1008    10.007   .     S
O1005     N2785    10.013   .     S
F1006     H1007    9.995   .     S
F1006     Ne2786    10.001   .     S
H1007     Li1008    9.991   .     S
H1007     He1140    10.001   .     S
Li1008     Be1139    10.016   .     S
H1009     Li1010    9.991   .     S
H1009     F1012    9.995   .     S
H1009     F1016    9.998   .     S
H1009     He3083    10.001   .     S
Li1010     O1011    10.007   .     S
Li1010     Be3082    10.016   .     S
O1011     F1012    9.992   .     S
O1011     N1187    10.013   .     S
F1012     H1013    9.998   .     S
F1012     Ne1188    10.001   .     S
H1013     Li1014    9.991   .     S
H1013     F1016    9.995   .     S
H1013     He1143    10.001   .     S
Li1014     O1015    10.007   .     S
Li1014     Be1142    10.016   .     S
O1015     F1016    9.992   .     S
O1015     N3145    10.013   .     S
F1016     Ne3146    10.001   .     S
O1017     F1018    9.992   .     S
O1017     Li1020    10.007   .     S
O1017     N1205    10.013   .     S
F1018     H1019    9.995   .     S
F1018     H1021    9.998   .     S
F1018     Ne1206    10.001   .     S
H1019     Li1020    9.991   .     S
H1019     F1024    9.998   .     S
H1019     He3095    10.001   .     S
Li1020     Be3094    10.016   .     S
H1021     Li1022    9.991   .     S
H1021     F1024    9.995   .     S
H1021     He1134    10.001   .     S
Li1022     O1023    10.007   .     S
Li1022     Be1133    10.016   .     S
O1023     F1024    9.992   .     S
O1023     N3153    10.013   .     S
F1024     Ne3154    10.001   .     S
S1025     Ce1026    9.988   .     S
S1025     Er1224    9.995   .     S
S1025     Ne1170    9.999   .     S
S1025     S1049    10.001   1_545     S
Ce1026     N1169    10.007   .     S
Ce1026     Ce1050    10.007   .     S
Ce1026     Ce1038    10.013   .     S
S1027     Ce1028    9.988   .     S
S1027     Er1227    9.995   .     S
S1027     Ne1202    9.999   .     S
S1027     S1047    10.001   .     S
Ce1028     N1201    10.007   .     S
Ce1028     Ce1048    10.007   .     S
Ce1028     Ce1068    10.013   1_655     S
S1029     Ce1030    9.988   .     S
S1029     Er1238    9.995   .     S
S1029     Ne1214    9.999   .     S
S1029     S1039    10.001   .     S
Ce1030     N1213    10.007   .     S
Ce1030     Ce1040    10.007   .     S
Ce1030     Ce1058    10.013   .     S
S1031     Ce1032    9.988   .     S
S1031     Er1236    9.995   .     S
S1031     Ne1206    9.999   .     S
S1031     S1041    10.001   .     S
Ce1032     N1205    10.007   .     S
Ce1032     Ce1042    10.007   .     S
Ce1032     Ce1056    10.013   .     S
S1033     Ce1034    9.988   .     S
S1033     Er1233    9.995   .     S
S1033     Ne1182    9.999   .     S
S1033     S1053    10.001   .     S
Ce1034     N1181    10.007   .     S
Ce1034     Ce1054    10.007   .     S
Ce1034     Ce1050    10.013   1_565     S
S1035     Ce1036    9.988   1_655     S
S1035     Er1240    9.995   .     S
S1035     Ne1164    9.999   .     S
S1035     S1043    10.001   1_655     S
Ce1036     S1035    9.988   1_455     S
Ce1036     N1163    10.007   1_455     S
Ce1036     Ce1044    10.007   .     S
Ce1036     Ce1048    10.013   1_455     S
S1037     Ce1038    9.988   .     S
S1037     Er1223    9.995   .     S
S1037     Ne1172    9.999   .     S
S1037     S1059    10.001   1_545     S
Ce1038     N1171    10.007   .     S
Ce1038     Ce1060    10.007   .     S
S1039     Ce1040    9.988   .     S
S1039     Er1229    9.995   .     S
S1039     Ne1190    9.999   .     S
Ce1040     N1189    10.007   .     S
Ce1040     Ce1042    10.013   .     S
S1041     Ce1042    9.988   .     S
S1041     Er1230    9.995   .     S
S1041     Ne1188    9.999   .     S
Ce1042     N1187    10.007   .     S
S1043     Ce1044    9.988   .     S
S1043     Er1222    9.995   .     S
S1043     Ne1176    9.999   .     S
S1043     S1035    10.001   1_455     S
Ce1044     N1175    10.007   .     S
Ce1044     Ce1062    10.013   .     S
S1045     Ce1046    9.988   .     S
S1045     Er1217    9.995   .     S
S1045     Ne1154    9.999   .     S
S1045     S1051    10.001   1_455     S
Ce1046     N1153    10.007   .     S
Ce1046     Ce1052    10.007   .     S
Ce1046     Ce1064    10.013   1_565     S
S1047     Ce1048    9.988   .     S
S1047     Er1239    9.995   .     S
S1047     Ne1166    9.999   .     S
Ce1048     N1165    10.007   .     S
Ce1048     Ce1036    10.013   1_655     S
S1049     Ce1050    9.988   1_565     S
S1049     Er1234    9.995   .     S
S1049     Ne1184    9.999   .     S
S1049     S1025    10.001   1_565     S
Ce1050     S1049    9.988   1_545     S
Ce1050     N1183    10.007   1_545     S
Ce1050     Ce1034    10.013   1_545     S
S1051     Ce1052    9.988   1_655     S
S1051     Er1225    9.995   .     S
S1051     Ne1148    9.999   .     S
S1051     S1045    10.001   1_655     S
Ce1052     S1051    9.988   1_455     S
Ce1052     N1147    10.007   1_455     S
Ce1052     Ce1070    10.013   1_465     S
S1053     Ce1054    9.988   .     S
S1053     Er1231    9.995   .     S
S1053     Ne1196    9.999   .     S
Ce1054     N1195    10.007   .     S
Ce1054     Ce1060    10.013   1_565     S
S1055     Ce1056    9.988   .     S
S1055     Er1235    9.995   .     S
S1055     Ne1208    9.999   .     S
S1055     S1057    10.001   .     S
Ce1056     N1207    10.007   .     S
Ce1056     Ce1058    10.007   .     S
S1057     Ce1058    9.988   .     S
S1057     Er1237    9.995   .     S
S1057     Ne1212    9.999   .     S
Ce1058     N1211    10.007   .     S
S1059     Ce1060    9.988   1_565     S
S1059     Er1232    9.995   .     S
S1059     Ne1194    9.999   .     S
S1059     S1037    10.001   1_565     S
Ce1060     S1059    9.988   1_545     S
Ce1060     N1193    10.007   1_545     S
Ce1060     Ce1054    10.013   1_545     S
S1061     Ce1062    9.988   .     S
S1061     Er1221    9.995   .     S
S1061     Ne1178    9.999   .     S
S1061     S1067    10.001   1_455     S
Ce1062     N1177    10.007   .     S
Ce1062     Ce1068    10.007   .     S
S1063     Ce1064    9.988   1_565     S
S1063     Er1218    9.995   .     S
S1063     Ne1152    9.999   .     S
S1063     S1071    10.001   1_465     S
Ce1064     S1063    9.988   1_545     S
Ce1064     N1151    10.007   1_545     S
Ce1064     Ce1072    10.007   .     S
Ce1064     Ce1046    10.013   1_545     S
S1065     Ce1066    9.988   .     S
S1065     Er1219    9.995   .     S
S1065     Ne1160    9.999   .     S
S1065     S1069    10.001   1_545     S
Ce1066     N1159    10.007   .     S
Ce1066     Ce1070    10.007   .     S
Ce1066     Ce1072    10.013   1_655     S
S1067     Ce1068    9.988   1_655     S
S1067     Er1228    9.995   .     S
S1067     Ne1200    9.999   .     S
S1067     S1061    10.001   1_655     S
Ce1068     S1067    9.988   1_455     S
Ce1068     N1199    10.007   1_455     S
Ce1068     Ce1028    10.013   1_455     S
S1069     Ce1070    9.988   1_565     S
S1069     Er1226    9.995   .     S
S1069     Ne1146    9.999   .     S
S1069     S1065    10.001   1_565     S
Ce1070     S1069    9.988   1_545     S
Ce1070     N1145    10.007   1_545     S
Ce1070     Ce1052    10.013   1_645     S
S1071     Ce1072    9.988   1_655     S
S1071     Er1220    9.995   .     S
S1071     Ne1158    9.999   .     S
S1071     S1063    10.001   1_645     S
Ce1072     S1071    9.988   1_455     S
Ce1072     N1157    10.007   1_455     S
Ce1072     Ce1066    10.013   1_455     S
Be1073     He1074    9.991   .     S
Be1073     Be1088    10.001   .     S
Be1073     Be1076    10.013   .     S
Be1073     Li1412    10.016   .     S
He1074     C1075    9.993   .     S
He1074     H1411    10.001   .     S
He1074     He1077    10.004   .     S
C1075     B1185    9.997   .     S
C1075     C1090    10.007   .     S
C1075     C1078    10.007   .     S
Be1076     He1077    9.991   .     S
Be1076     Be1082    10.001   .     S
He1077     C1078    9.993   .     S
C1078     B1167    9.997   .     S
C1078     C1084    10.007   .     S
Be1079     He1080    9.991   .     S
Be1079     Be1112    10.001   .     S
Be1079     Be1136    10.013   .     S
He1080     C1081    9.993   .     S
He1080     He1137    10.004   .     S
C1081     B1198    9.997   .     S
C1081     C1114    10.007   .     S
C1081     C1138    10.007   .     S
Be1082     He1083    9.991   .     S
Be1082     Be1088    10.013   .     S
He1083     C1084    9.993   .     S
He1083     He1089    10.004   .     S
C1084     B1168    9.997   .     S
C1084     C1090    10.007   .     S
Be1085     He1086    9.991   .     S
Be1085     Be1109    10.001   .     S
Be1085     Be1133    10.013   .     S
He1086     C1087    9.993   .     S
He1086     He1134    10.004   .     S
C1087     B1204    9.997   .     S
C1087     C1111    10.007   .     S
C1087     C1135    10.007   .     S
Be1088     He1089    9.991   .     S
He1089     C1090    9.993   .     S
C1090     B1186    9.997   .     S
Be1091     He1092    9.991   .     S
Be1091     Be1103    10.001   .     S
Be1091     Be1097    10.013   .     S
Be1091     Li1700    10.016   .     S
He1092     C1093    9.993   .     S
He1092     H1699    10.001   .     S
He1092     He1098    10.004   .     S
C1093     B1156    9.997   .     S
C1093     C1105    10.007   .     S
C1093     C1099    10.007   .     S
Be1094     He1095    9.991   .     S
Be1094     Be1121    10.001   .     S
Be1094     Be1139    10.013   .     S
Be1094     Li1716    10.016   .     S
He1095     C1096    9.993   .     S
He1095     H1715    10.001   .     S
He1095     He1140    10.004   .     S
C1096     B1162    9.997   .     S
C1096     C1141    10.007   .     S
C1096     C1123    10.007   .     S
Be1097     He1098    9.991   .     S
Be1097     Be1100    10.001   .     S
He1098     C1099    9.993   .     S
C1099     B1179    9.997   .     S
C1099     C1102    10.007   .     S
Be1100     He1101    9.991   .     S
Be1100     Be1103    10.013   .     S
Be1100     Li2996    10.016   .     S
He1101     C1102    9.993   .     S
He1101     H2995    10.001   .     S
He1101     He1104    10.004   .     S
C1102     B1180    9.997   .     S
C1102     C1105    10.007   .     S
Be1103     He1104    9.991   .     S
He1104     C1105    9.993   .     S
C1105     B1155    9.997   .     S
Be1106     He1107    9.991   .     S
Be1106     Be1124    10.001   .     S
Be1106     Be1127    10.013   .     S
He1107     C1108    9.993   .     S
He1107     He1128    10.004   .     S
C1108     B1149    9.997   .     S
C1108     C1129    10.007   .     S
C1108     C1126    10.007   .     S
Be1109     He1110    9.991   .     S
Be1109     Be1115    10.013   .     S
He1110     C1111    9.993   .     S
He1110     He1116    10.004   .     S
C1111     B1203    9.997   .     S
C1111     C1117    10.007   .     S
Be1112     He1113    9.991   .     S
Be1112     Be1118    10.013   .     S
Be1112     Li1330    10.016   .     S
He1113     C1114    9.993   .     S
He1113     H1329    10.001   .     S
He1113     He1119    10.004   .     S
C1114     B1197    9.997   .     S
C1114     C1120    10.007   .     S
Be1115     He1116    9.991   .     S
Be1115     Be1133    10.001   .     S
He1116     C1117    9.993   .     S
C1117     B1209    9.997   .     S
C1117     C1135    10.007   .     S
Be1118     He1119    9.991   .     S
Be1118     Be1136    10.001   .     S
Be1118     Li1392    10.016   .     S
He1119     C1120    9.993   .     S
He1119     H1391    10.001   .     S
C1120     B1215    9.997   .     S
C1120     C1138    10.007   .     S
Be1121     He1122    9.991   .     S
Be1121     Be1130    10.013   .     S
He1122     C1123    9.993   .     S
He1122     He1131    10.004   .     S
C1123     B1161    9.997   .     S
C1123     C1132    10.007   .     S
Be1124     He1125    9.991   .     S
Be1124     Be1142    10.013   .     S
Be1124     Li2932    10.016   .     S
He1125     C1126    9.993   .     S
He1125     H2931    10.001   .     S
He1125     He1143    10.004   .     S
C1126     B1150    9.997   .     S
C1126     C1144    10.007   .     S
Be1127     He1128    9.991   .     S
Be1127     Be1142    10.001   .     S
He1128     C1129    9.993   .     S
C1129     B1192    9.997   .     S
C1129     C1144    10.007   .     S
Be1130     He1131    9.991   .     S
Be1130     Be1139    10.001   .     S
He1131     C1132    9.993   .     S
C1132     B1174    9.997   .     S
C1132     C1141    10.007   .     S
Be1133     He1134    9.991   .     S
He1134     C1135    9.993   .     S
C1135     B1210    9.997   .     S
Be1136     He1137    9.991   .     S
He1137     C1138    9.993   .     S
C1138     B1216    9.997   .     S
Be1139     He1140    9.991   .     S
He1140     C1141    9.993   .     S
C1141     B1173    9.997   .     S
Be1142     He1143    9.991   .     S
He1143     C1144    9.993   .     S
C1144     B1191    9.997   .     S
N1145     Ne1146    9.989   .     S
N1145     N1147    10.001   .     S
N1145     Ce1070    10.007   1_565     S
N1145     O487    10.013   1_565     S
Ne1146     B1149    9.992   .     S
N1147     Ne1148    9.989   .     S
N1147     Ce1052    10.007   1_655     S
N1147     O2933    10.013   1_655     S
Ne1148     B1150    9.992   .     S
Ne1148     F2934    10.001   .     S
B1149     B1150    9.989   .     S
B1149     Er1226    9.993   .     S
B1150     Er1225    9.993   .     S
N1151     Ne1152    9.989   .     S
N1151     N1153    10.001   .     S
N1151     Ce1064    10.007   1_565     S
N1151     O1701    10.013   1_565     S
Ne1152     B1156    9.992   .     S
Ne1152     F1702    10.001   .     S
N1153     Ne1154    9.989   .     S
Ne1154     B1155    9.992   .     S
B1155     B1156    9.989   .     S
B1155     Er1217    9.993   .     S
B1156     Er1218    9.993   .     S
N1157     Ne1158    9.989   .     S
N1157     N1159    10.001   .     S
N1157     Ce1072    10.007   1_655     S
N1157     O1717    10.013   1_655     S
Ne1158     B1162    9.992   .     S
Ne1158     F1718    10.001   .     S
N1159     Ne1160    9.989   .     S
Ne1160     B1161    9.992   .     S
B1161     B1162    9.989   .     S
B1161     Er1219    9.993   .     S
B1162     Er1220    9.993   .     S
N1163     Ne1164    9.989   .     S
N1163     N1165    10.001   .     S
N1163     Ce1036    10.007   1_655     S
N1163     O583    10.013   1_655     S
Ne1164     B1168    9.992   .     S
N1165     Ne1166    9.989   .     S
Ne1166     B1167    9.992   .     S
B1167     B1168    9.989   .     S
B1167     Er1239    9.993   .     S
B1168     Er1240    9.993   .     S
N1169     Ne1170    9.989   .     S
N1169     N1171    10.001   .     S
Ne1170     B1173    9.992   .     S
N1171     Ne1172    9.989   .     S
Ne1172     B1174    9.992   .     S
B1173     B1174    9.989   .     S
B1173     Er1224    9.993   .     S
B1174     Er1223    9.993   .     S
N1175     Ne1176    9.989   .     S
N1175     N1177    10.001   .     S
Ne1176     B1179    9.992   .     S
N1177     Ne1178    9.989   .     S
N1177     O2999    10.013   .     S
Ne1178     B1180    9.992   .     S
Ne1178     F3000    10.001   .     S
B1179     B1180    9.989   .     S
B1179     Er1222    9.993   .     S
B1180     Er1221    9.993   .     S
N1181     Ne1182    9.989   .     S
N1181     N1183    10.001   .     S
N1181     O1415    10.013   .     S
Ne1182     B1185    9.992   .     S
Ne1182     F1416    10.001   .     S
N1183     Ne1184    9.989   .     S
N1183     Ce1050    10.007   1_565     S
N1183     O607    10.013   1_565     S
Ne1184     B1186    9.992   .     S
B1185     B1186    9.989   .     S
B1185     Er1233    9.993   .     S
B1186     Er1234    9.993   .     S
N1187     Ne1188    9.989   .     S
N1187     N1189    10.001   .     S
Ne1188     B1191    9.992   .     S
N1189     Ne1190    9.989   .     S
Ne1190     B1192    9.992   .     S
B1191     B1192    9.989   .     S
B1191     Er1230    9.993   .     S
B1192     Er1229    9.993   .     S
N1193     Ne1194    9.989   .     S
N1193     N1195    10.001   .     S
N1193     Ce1060    10.007   1_565     S
N1193     O649    10.013   1_565     S
Ne1194     B1198    9.992   .     S
N1195     Ne1196    9.989   .     S
N1195     O1333    10.013   .     S
Ne1196     B1197    9.992   .     S
Ne1196     F1334    10.001   .     S
B1197     B1198    9.989   .     S
B1197     Er1231    9.993   .     S
B1198     Er1232    9.993   .     S
N1199     Ne1200    9.989   .     S
N1199     N1201    10.001   .     S
N1199     Ce1068    10.007   1_655     S
N1199     O497    10.013   1_655     S
Ne1200     B1204    9.992   .     S
N1201     Ne1202    9.989   .     S
Ne1202     B1203    9.992   .     S
B1203     B1204    9.989   .     S
B1203     Er1227    9.993   .     S
B1204     Er1228    9.993   .     S
N1205     Ne1206    9.989   .     S
N1205     N1207    10.001   .     S
Ne1206     B1210    9.992   .     S
N1207     Ne1208    9.989   .     S
Ne1208     B1209    9.992   .     S
B1209     B1210    9.989   .     S
B1209     Er1235    9.993   .     S
B1210     Er1236    9.993   .     S
N1211     Ne1212    9.989   .     S
N1211     N1213    10.001   .     S
N1211     O1385    10.013   .     S
Ne1212     B1215    9.992   .     S
Ne1212     F1386    10.001   .     S
N1213     Ne1214    9.989   .     S
Ne1214     B1216    9.992   .     S
B1215     B1216    9.989   .     S
B1215     Er1237    9.993   .     S
B1216     Er1238    9.993   .     S
Er1217     Er1218    9.986   .     S
Er1217     Ti1250    9.992   1_455     S
Er1218     Ti1249    9.992   1_455     S
Er1219     Er1220    9.986   .     S
Er1219     Ti1255    9.992   1_545     S
Er1220     Ti1256    9.992   1_545     S
Er1221     Er1222    9.986   .     S
Er1221     Ti1243    9.992   1_455     S
Er1222     Ti1244    9.992   1_455     S
Er1223     Er1224    9.986   .     S
Er1223     Ti1246    9.992   1_545     S
Er1224     Ti1245    9.992   1_545     S
Er1225     Er1226    9.986   .     S
Er1225     Ti1263    9.992   .     S
Er1226     Ti1264    9.992   .     S
Er1227     Er1228    9.986   .     S
Er1227     Ti1271    9.992   .     S
Er1228     Ti1272    9.992   .     S
Er1229     Er1230    9.986   .     S
Er1229     Ti1254    9.992   .     S
Er1230     Ti1253    9.992   .     S
Er1231     Er1232    9.986   .     S
Er1231     Ti1248    9.992   .     S
Er1232     Ti1247    9.992   .     S
Er1233     Er1234    9.986   .     S
Er1233     Ti1280    9.992   .     S
Er1234     Ti1279    9.992   .     S
Er1235     Er1236    9.986   .     S
Er1235     Ti1242    9.992   .     S
Er1236     Ti1241    9.992   .     S
Er1237     Er1238    9.986   .     S
Er1237     Ti1282    9.992   .     S
Er1238     Ti1281    9.992   .     S
Er1239     Er1240    9.986   .     S
Er1239     Ti1252    9.992   .     S
Er1240     Ti1251    9.992   .     S
Ti1241     Ti1242    9.989   .     S
Ti1241     V1276    9.993   .     S
Ti1241     Ti1253    9.995   .     S
Ti1242     V1288    9.993   .     S
Ti1242     Ti1282    9.995   .     S
Ti1243     Er1221    9.992   1_655     S
Ti1243     Ti1244    9.989   .     S
Ti1243     V1277    9.993   .     S
Ti1243     Ti1272    9.995   .     S
Ti1244     Er1222    9.992   1_655     S
Ti1244     V1257    9.993   .     S
Ti1244     Ti1251    9.995   .     S
Ti1245     Er1224    9.992   1_565     S
Ti1245     Ti1246    9.989   .     S
Ti1245     V1259    9.993   .     S
Ti1245     Ti1279    9.995   .     S
Ti1246     Er1223    9.992   1_565     S
Ti1246     V1268    9.993   .     S
Ti1246     Ti1247    9.995   .     S
Ti1247     Ti1248    9.989   .     S
Ti1247     V1267    9.993   .     S
Ti1248     V1284    9.993   .     S
Ti1248     Ti1280    9.995   .     S
Ti1249     Er1218    9.992   1_655     S
Ti1249     Ti1250    9.989   .     S
Ti1249     V1262    9.993   .     S
Ti1249     Ti1256    9.995   .     S
Ti1250     Er1217    9.992   1_655     S
Ti1250     V1273    9.993   .     S
Ti1250     Ti1263    9.995   .     S
Ti1251     Ti1252    9.989   .     S
Ti1251     V1258    9.993   .     S
Ti1252     V1285    9.993   .     S
Ti1252     Ti1271    9.995   .     S
Ti1253     Ti1254    9.989   .     S
Ti1253     V1275    9.993   .     S
Ti1254     V1269    9.993   .     S
Ti1254     Ti1281    9.995   .     S
Ti1255     Er1219    9.992   1_565     S
Ti1255     Ti1256    9.989   .     S
Ti1255     V1266    9.993   .     S
Ti1255     Ti1264    9.995   .     S
Ti1256     Er1220    9.992   1_565     S
Ti1256     V1261    9.993   .     S
V1257     V1258    9.986   .     S
V1257     V1262    9.992   .     S
V1257     V1277    9.998   .     S
V1258     V1260    9.992   .     S
V1258     V1285    9.998   .     S
V1259     V1260    9.986   .     S
V1259     V1261    9.992   .     S
V1259     V1268    9.998   .     S
V1260     Ti1279    9.993   .     S
V1260     V1283    9.998   .     S
V1261     V1262    9.986   .     S
V1261     V1266    9.998   .     S
V1262     V1273    9.998   .     S
Ti1263     Ti1264    9.989   .     S
Ti1263     V1274    9.993   .     S
Ti1264     V1265    9.993   .     S
V1265     V1266    9.986   .     S
V1265     V1269    9.992   .     S
V1265     V1274    9.998   .     S
V1266     V1268    9.992   .     S
V1267     V1268    9.986   .     S
V1267     V1270    9.992   .     S
V1267     V1284    9.998   .     S
V1269     V1270    9.986   .     S
V1269     V1275    9.998   .     S
V1270     Ti1281    9.993   .     S
V1270     V1287    9.998   .     S
Ti1271     Ti1272    9.989   .     S
Ti1271     V1286    9.993   .     S
Ti1272     V1278    9.993   .     S
V1273     V1274    9.986   .     S
V1273     V1277    9.992   .     S
V1274     V1275    9.992   .     S
V1275     V1276    9.986   .     S
V1276     V1278    9.992   .     S
V1276     V1288    9.998   .     S
V1277     V1278    9.986   .     S
V1278     V1286    9.998   .     S
Ti1279     Ti1280    9.989   .     S
Ti1280     V1283    9.993   .     S
Ti1281     Ti1282    9.989   .     S
Ti1282     V1287    9.993   .     S
V1283     V1284    9.986   .     S
V1283     V1285    9.992   .     S
V1284     V1287    9.992   .     S
V1285     V1286    9.986   .     S
V1286     V1288    9.992   .     S
V1287     V1288    9.986   .     S
O1289     F1290    9.992   .     S
O1289     Li1292    10.007   .     S
O1289     N1945    10.013   .     S
F1290     H1291    9.995   .     S
F1290     H1293    9.998   .     S
F1290     Ne1946    10.001   .     S
H1291     Li1292    9.991   .     S
H1291     F1296    9.998   .     S
H1291     He1522    10.001   .     S
Li1292     Be1521    10.016   .     S
H1293     Li1294    9.991   .     S
H1293     F1296    9.995   .     S
H1293     He1886    10.001   .     S
Li1294     O1295    10.007   .     S
Li1294     Be1885    10.016   .     S
O1295     F1296    9.992   .     S
O1295     N1587    10.013   .     S
F1296     Ne1588    10.001   .     S
O1297     F1298    9.992   .     S
O1297     Li1300    10.007   .     S
O1297     N1553    10.013   .     S
F1298     H1299    9.995   .     S
F1298     H1303    9.998   .     S
F1298     Ne1554    10.001   .     S
H1299     Li1300    9.991   .     S
H1299     F1302    9.998   .     S
H1299     He2400    10.001   .     S
Li1300     Be2399    10.016   .     S
O1301     F1302    9.992   .     S
O1301     Li1304    10.007   .     S
O1301     N2525    10.013   .     S
F1302     H1303    9.995   .     S
F1302     Ne2526    10.001   .     S
H1303     Li1304    9.991   .     S
H1303     He1528    10.001   .     S
Li1304     Be1527    10.016   .     S
H1305     Li1306    9.991   .     S
H1305     F1308    9.995   .     S
H1305     F1310    9.998   .     S
H1305     He2145    10.001   .     S
Li1306     O1307    10.007   .     S
Li1306     Be2144    10.016   .     S
O1307     F1308    9.992   .     S
O1307     N1581    10.013   .     S
F1308     H1311    9.998   .     S
F1308     Ne1582    10.001   .     S
O1309     F1310    9.992   .     S
O1309     Li1312    10.007   .     S
O1309     N2233    10.013   .     S
F1310     H1311    9.995   .     S
F1310     Ne2234    10.001   .     S
H1311     Li1312    9.991   .     S
H1311     He1534    10.001   .     S
Li1312     Be1533    10.016   .     S
O1313     F1314    9.992   .     S
O1313     Li1316    10.007   .     S
O1313     N1951    10.013   .     S
F1314     H1315    9.995   .     S
F1314     H1317    9.998   .     S
F1314     Ne1952    10.001   .     S
H1315     Li1316    9.991   .     S
H1315     F1320    9.998   .     S
H1315     He1537    10.001   .     S
Li1316     Be1536    10.016   .     S
H1317     Li1318    9.991   .     S
H1317     F1320    9.995   .     S
H1317     He1862    10.001   .     S
Li1318     O1319    10.007   .     S
Li1318     Be1861    10.016   .     S
O1319     F1320    9.992   .     S
O1319     N1599    10.013   .     S
F1320     Ne1600    10.001   .     S
H1321     Li1322    9.991   .     S
H1321     F1324    9.995   .     S
H1321     F1326    9.998   .     S
H1321     He2139    10.001   .     S
Li1322     O1323    10.007   .     S
Li1322     Be2138    10.016   .     S
O1323     F1324    9.992   .     S
O1323     N1601    10.013   .     S
F1324     H1327    9.998   .     S
F1324     Ne1602    10.001   .     S
O1325     F1326    9.992   .     S
O1325     Li1328    10.007   .     S
O1325     N2225    10.013   .     S
F1326     H1327    9.995   .     S
F1326     Ne2226    10.001   .     S
H1327     Li1328    9.991   .     S
H1327     He1516    10.001   .     S
Li1328     Be1515    10.016   .     S
H1329     Li1330    9.991   .     S
H1329     F1332    9.995   .     S
H1329     F1334    9.998   .     S
Li1330     O1331    10.007   .     S
O1331     F1332    9.992   .     S
O1331     N1583    10.013   .     S
F1332     H1335    9.998   .     S
F1332     Ne1584    10.001   .     S
O1333     F1334    9.992   .     S
O1333     Li1336    10.007   .     S
F1334     H1335    9.995   .     S
H1335     Li1336    9.991   .     S
H1335     He1525    10.001   .     S
Li1336     Be1524    10.016   .     S
O1337     F1338    9.992   .     S
O1337     Li1340    10.007   .     S
O1337     N1557    10.013   .     S
F1338     H1339    9.995   .     S
F1338     H1343    9.998   .     S
F1338     Ne1558    10.001   .     S
H1339     Li1340    9.991   .     S
H1339     F1342    9.998   .     S
H1339     He2406    10.001   .     S
Li1340     Be2405    10.016   .     S
O1341     F1342    9.992   .     S
O1341     Li1344    10.007   .     S
O1341     N2519    10.013   .     S
F1342     H1343    9.995   .     S
F1342     Ne2520    10.001   .     S
H1343     Li1344    9.991   .     S
H1343     He1498    10.001   .     S
Li1344     Be1497    10.016   .     S
O1345     F1346    9.992   .     S
O1345     Li1348    10.007   .     S
O1345     N1569    10.013   .     S
F1346     H1347    9.995   .     S
F1346     H1351    9.998   .     S
F1346     Ne1570    10.001   .     S
H1347     Li1348    9.991   .     S
H1347     F1350    9.998   .     S
H1347     He2403    10.001   .     S
Li1348     Be2402    10.016   .     S
O1349     F1350    9.992   .     S
O1349     Li1352    10.007   .     S
O1349     N2465    10.013   .     S
F1350     H1351    9.995   .     S
F1350     Ne2466    10.001   .     S
H1351     Li1352    9.991   .     S
H1351     He1501    10.001   .     S
Li1352     Be1500    10.016   .     S
O1353     F1354    9.992   .     S
O1353     Li1356    10.007   .     S
O1353     N1547    10.013   .     S
F1354     H1355    9.995   .     S
F1354     H1359    9.998   .     S
F1354     Ne1548    10.001   .     S
H1355     Li1356    9.991   .     S
H1355     F1358    9.998   .     S
H1355     He2394    10.001   .     S
Li1356     Be2393    10.016   .     S
O1357     F1358    9.992   .     S
O1357     Li1360    10.007   .     S
O1357     N2531    10.013   .     S
F1358     H1359    9.995   .     S
F1358     Ne2532    10.001   .     S
H1359     Li1360    9.991   .     S
H1359     He1489    10.001   .     S
Li1360     Be1488    10.016   .     S
O1361     F1362    9.992   .     S
O1361     Li1364    10.007   .     S
O1361     N1565    10.013   .     S
F1362     H1363    9.995   .     S
F1362     H1367    9.998   .     S
F1362     Ne1566    10.001   .     S
H1363     Li1364    9.991   .     S
H1363     F1366    9.998   .     S
H1363     He2409    10.001   .     S
Li1364     Be2408    10.016   .     S
O1365     F1366    9.992   .     S
O1365     Li1368    10.007   .     S
O1365     N2513    10.013   .     S
F1366     H1367    9.995   .     S
F1366     Ne2514    10.001   .     S
H1367     Li1368    9.991   .     S
H1367     He1492    10.001   .     S
Li1368     Be1491    10.016   .     S
O1369     F1370    9.992   .     S
O1369     Li1372    10.007   .     S
O1369     N1577    10.013   .     S
F1370     H1371    9.995   .     S
F1370     H1375    9.998   .     S
F1370     Ne1578    10.001   .     S
H1371     Li1372    9.991   .     S
H1371     F1374    9.998   .     S
H1371     He2397    10.001   .     S
Li1372     Be2396    10.016   .     S
O1373     F1374    9.992   .     S
O1373     Li1376    10.007   .     S
O1373     N2471    10.013   .     S
F1374     H1375    9.995   .     S
F1374     Ne2472    10.001   .     S
H1375     Li1376    9.991   .     S
H1375     He1495    10.001   .     S
Li1376     Be1494    10.016   .     S
O1377     F1378    9.992   .     S
O1377     Li1380    10.007   .     S
O1377     N1963    10.013   .     S
F1378     H1379    9.995   .     S
F1378     H1383    9.998   .     S
F1378     Ne1964    10.001   .     S
H1379     Li1380    9.991   .     S
H1379     F1382    9.998   .     S
H1379     He1507    10.001   .     S
Li1380     Be1506    10.016   .     S
O1381     F1382    9.992   .     S
O1381     Li1384    10.007   .     S
O1381     N1563    10.013   .     S
F1382     H1383    9.995   .     S
F1382     Ne1564    10.001   .     S
H1383     Li1384    9.991   .     S
H1383     He1865    10.001   .     S
Li1384     Be1864    10.016   .     S
O1385     F1386    9.992   .     S
O1385     Li1388    10.007   .     S
F1386     H1387    9.995   .     S
F1386     H1391    9.998   .     S
H1387     Li1388    9.991   .     S
H1387     F1390    9.998   .     S
H1387     He1510    10.001   .     S
Li1388     Be1509    10.016   .     S
O1389     F1390    9.992   .     S
O1389     Li1392    10.007   .     S
O1389     N1571    10.013   .     S
F1390     H1391    9.995   .     S
F1390     Ne1572    10.001   .     S
H1391     Li1392    9.991   .     S
O1393     F1394    9.992   .     S
O1393     Li1396    10.007   .     S
O1393     N2237    10.013   .     S
F1394     H1395    9.995   .     S
F1394     H1399    9.998   .     S
F1394     Ne2238    10.001   .     S
H1395     Li1396    9.991   .     S
H1395     F1398    9.998   .     S
H1395     He1513    10.001   .     S
Li1396     Be1512    10.016   .     S
O1397     F1398    9.992   .     S
O1397     Li1400    10.007   .     S
O1397     N1575    10.013   .     S
F1398     H1399    9.995   .     S
F1398     Ne1576    10.001   .     S
H1399     Li1400    9.991   .     S
H1399     He2148    10.001   .     S
Li1400     Be2147    10.016   .     S
O1401     F1402    9.992   .     S
O1401     Li1404    10.007   .     S
O1401     N1595    10.013   .     S
F1402     H1403    9.995   .     S
F1402     H1405    9.998   .     S
F1402     Ne1596    10.001   .     S
H1403     Li1404    9.991   .     S
H1403     F1408    9.998   .     S
H1403     He1826    10.001   .     S
Li1404     Be1825    10.016   .     S
H1405     Li1406    9.991   .     S
H1405     F1408    9.995   .     S
H1405     He1474    10.001   .     S
Li1406     O1407    10.007   .     S
Li1406     Be1473    10.016   .     S
O1407     F1408    9.992   .     S
O1407     N1927    10.013   .     S
F1408     Ne1928    10.001   .     S
O1409     F1410    9.992   .     S
O1409     Li1412    10.007   .     S
O1409     N1605    10.013   .     S
F1410     H1411    9.995   .     S
F1410     H1413    9.998   .     S
F1410     Ne1606    10.001   .     S
H1411     Li1412    9.991   .     S
H1411     F1416    9.998   .     S
H1413     Li1414    9.991   .     S
H1413     F1416    9.995   .     S
H1413     He1519    10.001   .     S
Li1414     O1415    10.007   .     S
Li1414     Be1518    10.016   .     S
O1415     F1416    9.992   .     S
O1417     F1418    9.992   .     S
O1417     Li1420    10.007   .     S
O1417     N1611    10.013   .     S
F1418     H1419    9.995   .     S
F1418     H1421    9.998   .     S
F1418     Ne1612    10.001   .     S
H1419     Li1420    9.991   .     S
H1419     F1424    9.998   .     S
H1419     He2109    10.001   .     S
Li1420     Be2108    10.016   .     S
H1421     Li1422    9.991   .     S
H1421     F1424    9.995   .     S
H1421     He1480    10.001   .     S
Li1422     O1423    10.007   .     S
Li1422     Be1479    10.016   .     S
O1423     F1424    9.992   .     S
O1423     N2215    10.013   .     S
F1424     Ne2216    10.001   .     S
S1425     Ce1426    9.988   .     S
S1425     Er1630    9.995   .     S
S1425     Ne1572    9.999   .     S
S1425     S1455    10.001   .     S
Ce1426     N1571    10.007   .     S
Ce1426     Ce1456    10.007   .     S
Ce1426     Ce1444    10.013   .     S
S1427     Ce1428    9.988   .     S
S1427     Er1638    9.995   .     S
S1427     Ne1564    9.999   .     S
S1427     S1431    10.001   .     S
Ce1428     N1563    10.007   .     S
Ce1428     Ce1432    10.007   .     S
Ce1428     Ce1440    10.013   .     S
S1429     Ce1430    9.988   .     S
S1429     Er1617    9.995   .     S
S1429     Ne1602    9.999   .     S
S1429     S1437    10.001   .     S
Ce1430     N1601    10.007   .     S
Ce1430     Ce1438    10.007   .     S
Ce1430     Ce1468    10.013   .     S
S1431     Ce1432    9.988   .     S
S1431     Er1626    9.995   .     S
S1431     Ne1588    9.999   .     S
Ce1432     N1587    10.007   .     S
Ce1432     Ce1434    10.013   .     S
S1433     Ce1434    9.988   .     S
S1433     Er1625    9.995   .     S
S1433     Ne1590    9.999   .     S
S1433     S1445    10.001   .     S
Ce1434     N1589    10.007   .     S
Ce1434     Ce1446    10.007   .     S
S1435     Ce1436    9.988   .     S
S1435     Er1632    9.995   .     S
S1435     Ne1558    9.999   .     S
S1435     S1439    10.001   .     S
Ce1436     N1557    10.007   .     S
Ce1436     Ce1440    10.007   .     S
Ce1436     Ce1446    10.013   .     S
S1437     Ce1438    9.988   .     S
S1437     Er1640    9.995   .     S
S1437     Ne1576    9.999   .     S
Ce1438     N1575    10.007   .     S
Ce1438     Ce1448    10.013   .     S
S1439     Ce1440    9.988   .     S
S1439     Er1637    9.995   .     S
S1439     Ne1566    9.999   .     S
Ce1440     N1565    10.007   .     S
S1441     Ce1442    9.988   .     S
S1441     Er1635    9.995   .     S
S1441     Ne1546    9.999   .     S
S1441     S1467    10.001   .     S
Ce1442     N1545    10.007   .     S
Ce1442     Ce1468    10.007   .     S
Ce1442     Ce1466    10.013   .     S
S1443     Ce1444    9.988   .     S
S1443     Er1629    9.995   .     S
S1443     Ne1570    9.999   .     S
S1443     S1471    10.001   .     S
Ce1444     N1569    10.007   .     S
Ce1444     Ce1472    10.007   .     S
S1445     Ce1446    9.988   .     S
S1445     Er1631    9.995   .     S
S1445     Ne1560    9.999   .     S
Ce1446     N1559    10.007   .     S
S1447     Ce1448    9.988   .     S
S1447     Er1639    9.995   .     S
S1447     Ne1578    9.999   .     S
S1447     S1465    10.001   .     S
Ce1448     N1577    10.007   .     S
Ce1448     Ce1466    10.007   .     S
S1449     Ce1450    9.988   .     S
S1449     Er1633    9.995   .     S
S1449     Ne1552    9.999   .     S
S1449     S1469    10.001   .     S
Ce1450     N1551    10.007   .     S
Ce1450     Ce1470    10.007   .     S
Ce1450     Ce1472    10.013   .     S
S1451     Ce1452    9.988   .     S
S1451     Er1620    9.995   .     S
S1451     Ne1612    9.999   .     S
S1451     S1457    10.001   .     S
Ce1452     N1611    10.007   .     S
Ce1452     Ce1458    10.007   .     S
Ce1452     Ce1454    10.013   .     S
S1453     Ce1454    9.988   .     S
S1453     Er1619    9.995   .     S
S1453     Ne1614    9.999   .     S
S1453     S1461    10.001   .     S
Ce1454     N1613    10.007   .     S
Ce1454     Ce1462    10.007   .     S
S1455     Ce1456    9.988   .     S
S1455     Er1621    9.995   .     S
S1455     Ne1584    9.999   .     S
Ce1456     N1583    10.007   .     S
Ce1456     Ce1470    10.013   .     S
S1457     Ce1458    9.988   .     S
S1457     Er1628    9.995   .     S
S1457     Ne1608    9.999   .     S
Ce1458     N1607    10.007   .     S
Ce1458     Ce1464    10.013   .     S
S1459     Ce1460    9.988   .     S
S1459     Er1624    9.995   .     S
S1459     Ne1594    9.999   .     S
S1459     S1463    10.001   .     S
Ce1460     N1593    10.007   .     S
Ce1460     Ce1464    10.007   .     S
Ce1460     Ce1462    10.013   .     S
S1461     Ce1462    9.988   .     S
S1461     Er1623    9.995   .     S
S1461     Ne1596    9.999   .     S
Ce1462     N1595    10.007   .     S
S1463     Ce1464    9.988   .     S
S1463     Er1627    9.995   .     S
S1463     Ne1606    9.999   .     S
Ce1464     N1605    10.007   .     S
S1465     Ce1466    9.988   .     S
S1465     Er1636    9.995   .     S
S1465     Ne1548    9.999   .     S
Ce1466     N1547    10.007   .     S
S1467     Ce1468    9.988   .     S
S1467     Er1618    9.995   .     S
S1467     Ne1600    9.999   .     S
Ce1468     N1599    10.007   .     S
S1469     Ce1470    9.988   .     S
S1469     Er1622    9.995   .     S
S1469     Ne1582    9.999   .     S
Ce1470     N1581    10.007   .     S
S1471     Ce1472    9.988   .     S
S1471     Er1634    9.995   .     S
S1471     Ne1554    9.999   .     S
Ce1472     N1553    10.007   .     S
Be1473     He1474    9.991   .     S
Be1473     Be1476    10.001   .     S
Be1473     Be1521    10.013   .     S
He1474     C1475    9.993   .     S
He1474     He1522    10.004   .     S
C1475     B1598    9.997   .     S
C1475     C1523    10.007   .     S
C1475     C1478    10.007   .     S
Be1476     He1477    9.991   .     S
Be1476     Be1530    10.013   .     S
He1477     C1478    9.993   .     S
He1477     He1531    10.004   .     S
C1478     B1597    9.997   .     S
C1478     C1532    10.007   .     S
Be1479     He1480    9.991   .     S
Be1479     Be1485    10.001   .     S
Be1479     Be1515    10.013   .     S
He1480     C1481    9.993   .     S
He1480     He1516    10.004   .     S
C1481     B1616    9.997   .     S
C1481     C1517    10.007   .     S
C1481     C1487    10.007   .     S
Be1482     He1483    9.991   .     S
Be1482     Be1518    10.001   .     S
Be1482     Be1533    10.013   .     S
He1483     C1484    9.993   .     S
He1483     He1534    10.004   .     S
C1484     B1609    9.997   .     S
C1484     C1535    10.007   .     S
C1484     C1520    10.007   .     S
Be1485     He1486    9.991   .     S
Be1485     Be1536    10.013   .     S
He1486     C1487    9.993   .     S
He1486     He1537    10.004   .     S
C1487     B1615    9.997   .     S
C1487     C1538    10.007   .     S
Be1488     He1489    9.991   .     S
Be1488     Be1539    10.001   .     S
Be1488     Be1491    10.013   .     S
He1489     C1490    9.993   .     S
He1489     He1492    10.004   .     S
C1490     B1549    9.997   .     S
C1490     C1493    10.007   .     S
C1490     C1541    10.007   .     S
Be1491     He1492    9.991   .     S
Be1491     Be1506    10.001   .     S
He1492     C1493    9.993   .     S
C1493     B1567    9.997   .     S
C1493     C1508    10.007   .     S
Be1494     He1495    9.991   .     S
Be1494     Be1512    10.001   .     S
Be1494     Be1527    10.013   .     S
He1495     C1496    9.993   .     S
He1495     He1528    10.004   .     S
C1496     B1579    9.997   .     S
C1496     C1529    10.007   .     S
C1496     C1514    10.007   .     S
Be1497     He1498    9.991   .     S
Be1497     Be1542    10.001   .     S
Be1497     Be1500    10.013   .     S
He1498     C1499    9.993   .     S
He1498     He1501    10.004   .     S
C1499     B1561    9.997   .     S
C1499     C1502    10.007   .     S
C1499     C1544    10.007   .     S
Be1500     He1501    9.991   .     S
Be1500     Be1509    10.001   .     S
He1501     C1502    9.993   .     S
C1502     B1573    9.997   .     S
C1502     C1511    10.007   .     S
Be1503     He1504    9.991   .     S
Be1503     Be1527    10.001   .     S
Be1503     Be1512    10.013   .     S
He1504     C1505    9.993   .     S
He1504     He1513    10.004   .     S
C1505     B1555    9.997   .     S
C1505     C1529    10.007   .     S
C1505     C1514    10.007   .     S
Be1506     He1507    9.991   .     S
Be1506     Be1539    10.013   .     S
He1507     C1508    9.993   .     S
He1507     He1540    10.004   .     S
C1508     B1568    9.997   .     S
C1508     C1541    10.007   .     S
Be1509     He1510    9.991   .     S
Be1509     Be1542    10.013   .     S
He1510     C1511    9.993   .     S
He1510     He1543    10.004   .     S
C1511     B1574    9.997   .     S
C1511     C1544    10.007   .     S
Be1512     He1513    9.991   .     S
He1513     C1514    9.993   .     S
C1514     B1580    9.997   .     S
Be1515     He1516    9.991   .     S
Be1515     Be1536    10.001   .     S
He1516     C1517    9.993   .     S
C1517     B1603    9.997   .     S
C1517     C1538    10.007   .     S
Be1518     He1519    9.991   .     S
Be1518     Be1524    10.013   .     S
He1519     C1520    9.993   .     S
He1519     He1525    10.004   .     S
C1520     B1610    9.997   .     S
C1520     C1526    10.007   .     S
Be1521     He1522    9.991   .     S
Be1521     Be1530    10.001   .     S
He1522     C1523    9.993   .     S
C1523     B1591    9.997   .     S
C1523     C1532    10.007   .     S
Be1524     He1525    9.991   .     S
Be1524     Be1533    10.001   .     S
He1525     C1526    9.993   .     S
C1526     B1585    9.997   .     S
C1526     C1535    10.007   .     S
Be1527     He1528    9.991   .     S
He1528     C1529    9.993   .     S
C1529     B1556    9.997   .     S
Be1530     He1531    9.991   .     S
He1531     C1532    9.993   .     S
C1532     B1592    9.997   .     S
Be1533     He1534    9.991   .     S
He1534     C1535    9.993   .     S
C1535     B1586    9.997   .     S
Be1536     He1537    9.991   .     S
He1537     C1538    9.993   .     S
C1538     B1604    9.997   .     S
Be1539     He1540    9.991   .     S
He1540     C1541    9.993   .     S
C1541     B1550    9.997   .     S
Be1542     He1543    9.991   .     S
He1543     C1544    9.993   .     S
C1544     B1562    9.997   .     S
N1545     Ne1546    9.989   .     S
N1545     N1547    10.001   .     S
Ne1546     B1550    9.992   .     S
N1547     Ne1548    9.989   .     S
Ne1548     B1549    9.992   .     S
B1549     B1550    9.989   .     S
B1549     Er1636    9.993   .     S
B1550     Er1635    9.993   .     S
N1551     Ne1552    9.989   .     S
N1551     N1553    10.001   .     S
Ne1552     B1555    9.992   .     S
N1553     Ne1554    9.989   .     S
Ne1554     B1556    9.992   .     S
B1555     B1556    9.989   .     S
B1555     Er1633    9.993   .     S
B1556     Er1634    9.993   .     S
N1557     Ne1558    9.989   .     S
N1557     N1559    10.001   .     S
Ne1558     B1561    9.992   .     S
N1559     Ne1560    9.989   .     S
Ne1560     B1562    9.992   .     S
B1561     B1562    9.989   .     S
B1561     Er1632    9.993   .     S
B1562     Er1631    9.993   .     S
N1563     Ne1564    9.989   .     S
N1563     N1565    10.001   .     S
Ne1564     B1568    9.992   .     S
N1565     Ne1566    9.989   .     S
Ne1566     B1567    9.992   .     S
B1567     B1568    9.989   .     S
B1567     Er1637    9.993   .     S
B1568     Er1638    9.993   .     S
N1569     Ne1570    9.989   .     S
N1569     N1571    10.001   .     S
Ne1570     B1573    9.992   .     S
N1571     Ne1572    9.989   .     S
Ne1572     B1574    9.992   .     S
B1573     B1574    9.989   .     S
B1573     Er1629    9.993   .     S
B1574     Er1630    9.993   .     S
N1575     Ne1576    9.989   .     S
N1575     N1577    10.001   .     S
Ne1576     B1580    9.992   .     S
N1577     Ne1578    9.989   .     S
Ne1578     B1579    9.992   .     S
B1579     B1580    9.989   .     S
B1579     Er1639    9.993   .     S
B1580     Er1640    9.993   .     S
N1581     Ne1582    9.989   .     S
N1581     N1583    10.001   .     S
Ne1582     B1586    9.992   .     S
N1583     Ne1584    9.989   .     S
Ne1584     B1585    9.992   .     S
B1585     B1586    9.989   .     S
B1585     Er1621    9.993   .     S
B1586     Er1622    9.993   .     S
N1587     Ne1588    9.989   .     S
N1587     N1589    10.001   .     S
Ne1588     B1591    9.992   .     S
N1589     Ne1590    9.989   .     S
Ne1590     B1592    9.992   .     S
B1591     B1592    9.989   .     S
B1591     Er1626    9.993   .     S
B1592     Er1625    9.993   .     S
N1593     Ne1594    9.989   .     S
N1593     N1595    10.001   .     S
Ne1594     B1597    9.992   .     S
N1595     Ne1596    9.989   .     S
Ne1596     B1598    9.992   .     S
B1597     B1598    9.989   .     S
B1597     Er1624    9.993   .     S
B1598     Er1623    9.993   .     S
N1599     Ne1600    9.989   .     S
N1599     N1601    10.001   .     S
Ne1600     B1604    9.992   .     S
N1601     Ne1602    9.989   .     S
Ne1602     B1603    9.992   .     S
B1603     B1604    9.989   .     S
B1603     Er1617    9.993   .     S
B1604     Er1618    9.993   .     S
N1605     Ne1606    9.989   .     S
N1605     N1607    10.001   .     S
Ne1606     B1610    9.992   .     S
N1607     Ne1608    9.989   .     S
Ne1608     B1609    9.992   .     S
B1609     B1610    9.989   .     S
B1609     Er1628    9.993   .     S
B1610     Er1627    9.993   .     S
N1611     Ne1612    9.989   .     S
N1611     N1613    10.001   .     S
Ne1612     B1616    9.992   .     S
N1613     Ne1614    9.989   .     S
Ne1614     B1615    9.992   .     S
B1615     B1616    9.989   .     S
B1615     Er1619    9.993   .     S
B1616     Er1620    9.993   .     S
Er1617     Er1618    9.986   .     S
Er1617     Ti1645    9.992   .     S
Er1618     Ti1646    9.992   .     S
Er1619     Er1620    9.986   .     S
Er1619     Ti1656    9.992   .     S
Er1620     Ti1655    9.992   .     S
Er1621     Er1622    9.986   .     S
Er1621     Ti1682    9.992   .     S
Er1622     Ti1681    9.992   .     S
Er1623     Er1624    9.986   .     S
Er1623     Ti1668    9.992   .     S
Er1624     Ti1667    9.992   .     S
Er1625     Er1626    9.986   .     S
Er1625     Ti1641    9.992   .     S
Er1626     Ti1642    9.992   .     S
Er1627     Er1628    9.986   .     S
Er1627     Ti1671    9.992   .     S
Er1628     Ti1672    9.992   .     S
Er1629     Er1630    9.986   .     S
Er1629     Ti1669    9.992   .     S
Er1630     Ti1670    9.992   .     S
Er1631     Er1632    9.986   .     S
Er1631     Ti1654    9.992   .     S
Er1632     Ti1653    9.992   .     S
Er1633     Er1634    9.986   .     S
Er1633     Ti1660    9.992   .     S
Er1634     Ti1659    9.992   .     S
Er1635     Er1636    9.986   .     S
Er1635     Ti1658    9.992   .     S
Er1636     Ti1657    9.992   .     S
Er1637     Er1638    9.986   .     S
Er1637     Ti1643    9.992   .     S
Er1638     Ti1644    9.992   .     S
Er1639     Er1640    9.986   .     S
Er1639     Ti1673    9.992   .     S
Er1640     Ti1674    9.992   .     S
Ti1641     Ti1642    9.989   .     S
Ti1641     V1678    9.993   .     S
Ti1641     Ti1654    9.995   .     S
Ti1642     V1647    9.993   .     S
Ti1642     Ti1644    9.995   .     S
Ti1643     Ti1644    9.989   .     S
Ti1643     V1661    9.993   .     S
Ti1643     Ti1653    9.995   .     S
Ti1644     V1648    9.993   .     S
Ti1645     Ti1646    9.989   .     S
Ti1645     V1687    9.993   .     S
Ti1645     Ti1674    9.995   .     S
Ti1646     V1650    9.993   .     S
Ti1646     Ti1658    9.995   .     S
V1647     V1648    9.986   .     S
V1647     V1651    9.992   .     S
V1647     V1678    9.998   .     S
V1648     V1649    9.992   .     S
V1648     V1661    9.998   .     S
V1649     V1650    9.986   .     S
V1649     Ti1658    9.993   .     S
V1649     V1664    9.998   .     S
V1650     V1652    9.992   .     S
V1650     V1687    9.998   .     S
V1651     V1652    9.986   .     S
V1651     Ti1668    9.993   .     S
V1651     V1675    9.998   .     S
V1652     Ti1656    9.993   .     S
V1652     V1684    9.998   .     S
Ti1653     Ti1654    9.989   .     S
Ti1653     V1662    9.993   .     S
Ti1654     V1677    9.993   .     S
Ti1655     Ti1656    9.989   .     S
Ti1655     V1684    9.993   .     S
Ti1655     Ti1672    9.995   .     S
Ti1656     Ti1668    9.995   .     S
Ti1657     Ti1658    9.989   .     S
Ti1657     V1664    9.993   .     S
Ti1657     Ti1673    9.995   .     S
Ti1659     Ti1660    9.989   .     S
Ti1659     V1666    9.993   .     S
Ti1659     Ti1669    9.995   .     S
Ti1660     V1685    9.993   .     S
Ti1660     Ti1681    9.995   .     S
V1661     V1662    9.986   .     S
V1661     V1664    9.992   .     S
V1662     V1665    9.992   .     S
V1662     V1677    9.998   .     S
V1663     V1664    9.986   .     S
V1663     Ti1673    9.993   .     S
V1663     V1666    9.992   .     S
V1663     V1688    9.998   .     S
V1665     V1666    9.986   .     S
V1665     Ti1669    9.993   .     S
V1665     V1680    9.998   .     S
V1666     V1685    9.998   .     S
Ti1667     Ti1668    9.989   .     S
Ti1667     V1675    9.993   .     S
Ti1667     Ti1671    9.995   .     S
Ti1669     Ti1670    9.989   .     S
Ti1670     V1680    9.993   .     S
Ti1670     Ti1682    9.995   .     S
Ti1671     Ti1672    9.989   .     S
Ti1671     V1676    9.993   .     S
Ti1672     V1683    9.993   .     S
Ti1673     Ti1674    9.989   .     S
Ti1674     V1688    9.993   .     S
V1675     V1676    9.986   .     S
V1675     V1678    9.992   .     S
V1676     V1679    9.992   .     S
V1676     V1683    9.998   .     S
V1677     V1678    9.986   .     S
V1677     V1680    9.992   .     S
V1679     V1680    9.986   .     S
V1679     Ti1682    9.993   .     S
V1679     V1686    9.998   .     S
Ti1681     Ti1682    9.989   .     S
Ti1681     V1686    9.993   .     S
V1683     V1684    9.986   .     S
V1683     V1686    9.992   .     S
V1684     V1687    9.992   .     S
V1685     V1686    9.986   .     S
V1685     V1688    9.992   .     S
V1687     V1688    9.986   .     S
O1689     F1690    9.992   1_655     S
O1689     Na233    10.006   1_655     S
O1689     Li1692    10.007   .     S
O1689     N3127    10.013   1_655     S
F1690     O1689    9.992   1_455     S
F1690     H1691    9.995   1_455     S
F1690     H1695    9.998   .     S
F1690     Ne3128    10.001   .     S
H1691     Li1692    9.991   .     S
H1691     F1690    9.995   1_655     S
H1691     F1694    9.998   .     S
H1691     He1847    10.001   .     S
Li1692     Be1846    10.016   .     S
O1693     Na359    10.006   1_455     S
O1693     F1694    9.992   1_455     S
O1693     Li1696    10.007   .     S
O1693     N1897    10.013   1_455     S
F1694     O1693    9.992   1_655     S
F1694     H1695    9.995   1_655     S
F1694     Ne1898    10.001   .     S
H1695     Li1696    9.991   .     S
H1695     F1694    9.995   1_455     S
H1695     He3107    10.001   .     S
Li1696     Be3106    10.016   .     S
O1697     F1698    9.992   1_565     S
O1697     Na235    10.006   1_565     S
O1697     Li1700    10.007   .     S
O1697     N2797    10.013   1_565     S
F1698     O1697    9.992   1_545     S
F1698     H1699    9.995   1_545     S
F1698     H1703    9.998   .     S
F1698     Ne2798    10.001   .     S
H1699     Li1700    9.991   .     S
H1699     F1698    9.995   1_565     S
H1699     F1702    9.998   .     S
O1701     Na361    10.006   1_545     S
O1701     F1702    9.992   1_545     S
O1701     Li1704    10.007   .     S
O1701     N1151    10.013   1_545     S
F1702     O1701    9.992   1_565     S
F1702     H1703    9.995   1_565     S
H1703     Li1704    9.991   .     S
H1703     F1702    9.995   1_545     S
H1703     He2768    10.001   .     S
Li1704     Be2767    10.016   .     S
O1705     F1706    9.992   1_556     S
O1705     Na237    10.006   1_556     S
O1705     Li1708    10.007   .     S
O1705     N3141    10.013   1_556     S
F1706     O1705    9.992   1_554     S
F1706     H1707    9.995   1_554     S
F1706     H1711    9.998   .     S
F1706     Ne3142    10.001   .     S
H1707     Li1708    9.991   .     S
H1707     F1706    9.995   1_556     S
H1707     F1710    9.998   .     S
H1707     He1844    10.001   .     S
Li1708     Be1843    10.016   .     S
O1709     Na363    10.006   1_554     S
O1709     F1710    9.992   1_554     S
O1709     Li1712    10.007   .     S
O1709     N1915    10.013   1_554     S
F1710     O1709    9.992   1_556     S
F1710     H1711    9.995   1_556     S
F1710     Ne1916    10.001   .     S
H1711     Li1712    9.991   .     S
H1711     F1710    9.995   1_554     S
H1711     He3110    10.001   .     S
Li1712     Be3109    10.016   .     S
O1713     F1714    9.992   1_655     S
O1713     Na241    10.006   1_655     S
O1713     Li1716    10.007   .     S
O1713     N2823    10.013   1_655     S
F1714     O1713    9.992   1_455     S
F1714     H1715    9.995   1_455     S
F1714     H1719    9.998   .     S
F1714     Ne2824    10.001   .     S
H1715     Li1716    9.991   .     S
H1715     F1714    9.995   1_655     S
H1715     F1718    9.998   .     S
O1717     Na367    10.006   1_455     S
O1717     F1718    9.992   1_455     S
O1717     Li1720    10.007   .     S
O1717     N1157    10.013   1_455     S
F1718     O1717    9.992   1_655     S
F1718     H1719    9.995   1_655     S
H1719     Li1720    9.991   .     S
H1719     F1718    9.995   1_455     S
H1719     He2771    10.001   .     S
Li1720     Be2770    10.016   .     S
H1721     Li1722    9.991   .     S
H1721     F1724    9.995   .     S
H1721     F1728    9.998   .     S
H1721     He1892    10.001   .     S
Li1722     O1723    10.007   .     S
Li1722     Be1891    10.016   .     S
O1723     F1724    9.992   .     S
O1723     N3121    10.013   .     S
F1724     H1725    9.998   .     S
F1724     Ne3122    10.001   .     S
H1725     Li1726    9.991   .     S
H1725     F1728    9.995   .     S
H1725     He3116    10.001   .     S
Li1726     O1727    10.007   .     S
Li1726     Be3115    10.016   .     S
O1727     F1728    9.992   .     S
O1727     N1933    10.013   .     S
F1728     Ne1934    10.001   .     S
H1729     Li1730    9.991   .     S
H1729     F1732    9.995   .     S
H1729     F1736    9.998   .     S
H1729     He2169    10.001   .     S
Li1730     O1731    10.007   .     S
Li1730     Be2168    10.016   .     S
O1731     F1732    9.992   .     S
F1732     H1733    9.998   .     S
H1733     Li1734    9.991   .     S
H1733     F1736    9.995   .     S
Li1734     O1735    10.007   .     S
O1735     F1736    9.992   .     S
O1735     N2201    10.013   .     S
F1736     Ne2202    10.001   .     S
H1737     Li1738    9.991   .     S
H1737     F1740    9.995   .     S
H1737     F1744    9.998   .     S
H1737     He2172    10.001   .     S
Li1738     O1739    10.007   .     S
Li1738     Be2171    10.016   .     S
O1739     F1740    9.992   .     S
F1740     H1741    9.998   .     S
H1741     Li1742    9.991   .     S
H1741     F1744    9.995   .     S
Li1742     O1743    10.007   .     S
O1743     F1744    9.992   .     S
O1743     N2209    10.013   .     S
F1744     Ne2210    10.001   .     S
H1745     Li1746    9.991   .     S
H1745     F1748    9.995   .     S
H1745     F1752    9.998   .     S
H1745     He1895    10.001   .     S
Li1746     O1747    10.007   .     S
Li1746     Be1894    10.016   .     S
O1747     F1748    9.992   .     S
O1747     N3151    10.013   .     S
F1748     H1749    9.998   .     S
F1748     Ne3152    10.001   .     S
H1749     Li1750    9.991   .     S
H1749     F1752    9.995   .     S
H1749     He3113    10.001   .     S
Li1750     O1751    10.007   .     S
Li1750     Be3112    10.016   .     S
O1751     F1752    9.992   .     S
O1751     N1921    10.013   .     S
F1752     Ne1922    10.001   .     S
H1753     Li1754    9.991   .     S
H1753     F1756    9.995   .     S
H1753     F1758    9.998   .     S
H1753     He2454    10.001   .     S
Li1754     O1755    10.007   .     S
Li1754     Be2453    10.016   .     S
O1755     F1756    9.992   .     S
O1755     N2841    10.013   .     S
F1756     H1759    9.998   .     S
F1756     Ne2842    10.001   .     S
O1757     F1758    9.992   .     S
O1757     Li1760    10.007   .     S
O1757     N2533    10.013   .     S
F1758     H1759    9.995   .     S
F1758     Ne2534    10.001   .     S
H1759     Li1760    9.991   .     S
H1759     He2714    10.001   .     S
Li1760     Be2713    10.016   .     S
H1761     Li1762    9.991   .     S
H1761     F1764    9.995   .     S
H1761     F1768    9.998   .     S
Li1762     O1763    10.007   .     S
O1763     F1764    9.992   .     S
O1763     N1939    10.013   .     S
F1764     H1765    9.998   .     S
F1764     Ne1940    10.001   .     S
H1765     Li1766    9.991   .     S
H1765     F1768    9.995   .     S
H1765     He1874    10.001   .     S
Li1766     O1767    10.007   .     S
Li1766     Be1873    10.016   .     S
O1767     F1768    9.992   .     S
O1769     F1770    9.992   .     S
O1769     Li1772    10.007   .     S
O1769     N1957    10.013   .     S
F1770     H1771    9.995   .     S
F1770     H1773    9.998   .     S
F1770     Ne1958    10.001   .     S
H1771     Li1772    9.991   .     S
H1771     F1776    9.998   .     S
H1773     Li1774    9.991   .     S
H1773     F1776    9.995   .     S
H1773     He1883    10.001   .     S
Li1774     O1775    10.007   .     S
Li1774     Be1882    10.016   .     S
O1775     F1776    9.992   .     S
S1777     Ce1778    9.988   .     S
S1777     Er1975    9.995   .     S
S1777     Ne1934    9.999   .     S
S1777     S1819    10.001   1_455     S
Ce1778     N1933    10.007   .     S
Ce1778     Ce1820    10.007   .     S
Ce1778     Ce1798    10.013   .     S
S1779     Ce1780    9.988   .     S
S1779     Er1988    9.995   .     S
S1779     Ne1966    9.999   .     S
S1779     S1793    10.001   .     S
Ce1780     N1965    10.007   .     S
Ce1780     Ce1794    10.007   .     S
Ce1780     Ce1814    10.013   .     S
S1781     Ce1782    9.988   .     S
S1781     Er1990    9.995   .     S
S1781     Ne1958    9.999   .     S
S1781     S1789    10.001   .     S
Ce1782     N1957    10.007   .     S
Ce1782     Ce1790    10.007   .     S
Ce1782     Ce1812    10.013   .     S
S1783     Ce1784    9.988   .     S
S1783     Er1979    9.995   .     S
S1783     Ne1952    9.999   .     S
S1783     S1803    10.001   .     S
Ce1784     N1951    10.007   .     S
Ce1784     Ce1804    10.007   .     S
Ce1784     Ce1802    10.013   1_556     S
S1785     Ce1786    9.988   1_556     S
S1785     Er1992    9.995   .     S
S1785     Ne1910    9.999   .     S
S1785     S1805    10.001   1_556     S
Ce1786     S1785    9.988   1_554     S
Ce1786     N1909    10.007   1_554     S
Ce1786     Ce1806    10.007   .     S
Ce1786     Ce1804    10.013   1_554     S
S1787     Ce1788    9.988   .     S
S1787     Er1985    9.995   .     S
S1787     Ne1928    9.999   .     S
S1787     S1809    10.001   .     S
Ce1788     N1927    10.007   .     S
Ce1788     Ce1810    10.007   .     S
Ce1788     Ce1820    10.013   1_655     S
S1789     Ce1790    9.988   .     S
S1789     Er1983    9.995   .     S
S1789     Ne1940    9.999   .     S
Ce1790     N1939    10.007   .     S
Ce1790     Ce1794    10.013   .     S
S1791     Ce1792    9.988   1_556     S
S1791     Er1978    9.995   .     S
S1791     Ne1906    9.999   .     S
S1791     S1799    10.001   1_556     S
Ce1792     S1791    9.988   1_554     S
Ce1792     N1905    10.007   1_554     S
Ce1792     Ce1800    10.007   .     S
Ce1792     Ce1824    10.013   1_654     S
S1793     Ce1794    9.988   .     S
S1793     Er1984    9.995   .     S
S1793     Ne1942    9.999   .     S
Ce1794     N1941    10.007   .     S
S1795     Ce1796    9.988   .     S
S1795     Er1971    9.995   .     S
S1795     Ne1918    9.999   .     S
S1795     S1823    10.001   1_455     S
Ce1796     N1917    10.007   .     S
Ce1796     Ce1824    10.007   .     S
Ce1796     Ce1822    10.013   1_556     S
S1797     Ce1798    9.988   .     S
S1797     Er1976    9.995   .     S
S1797     Ne1936    9.999   .     S
S1797     S1815    10.001   1_455     S
Ce1798     N1935    10.007   .     S
Ce1798     Ce1816    10.007   .     S
S1799     Ce1800    9.988   .     S
S1799     Er1969    9.995   .     S
S1799     Ne1900    9.999   .     S
S1799     S1791    10.001   1_554     S
Ce1800     N1899    10.007   .     S
Ce1800     Ce1818    10.013   1_655     S
S1801     Ce1802    9.988   1_556     S
S1801     Er1980    9.995   .     S
S1801     Ne1954    9.999   .     S
S1801     S1807    10.001   1_556     S
Ce1802     S1801    9.988   1_554     S
Ce1802     N1953    10.007   1_554     S
Ce1802     Ce1808    10.007   .     S
Ce1802     Ce1784    10.013   1_554     S
S1803     Ce1804    9.988   .     S
S1803     Er1991    9.995   .     S
S1803     Ne1912    9.999   .     S
Ce1804     N1911    10.007   .     S
Ce1804     Ce1786    10.013   1_556     S
S1805     Ce1806    9.988   .     S
S1805     Er1974    9.995   .     S
S1805     Ne1922    9.999   .     S
S1805     S1785    10.001   1_554     S
Ce1806     N1921    10.007   .     S
Ce1806     Ce1808    10.013   .     S
S1807     Ce1808    9.988   .     S
S1807     Er1973    9.995   .     S
S1807     Ne1924    9.999   .     S
S1807     S1801    10.001   1_554     S
Ce1808     N1923    10.007   .     S
S1809     Ce1810    9.988   .     S
S1809     Er1981    9.995   .     S
S1809     Ne1946    9.999   .     S
Ce1810     N1945    10.007   .     S
Ce1810     Ce1816    10.013   1_655     S
S1811     Ce1812    9.988   .     S
S1811     Er1989    9.995   .     S
S1811     Ne1960    9.999   .     S
S1811     S1813    10.001   .     S
Ce1812     N1959    10.007   .     S
Ce1812     Ce1814    10.007   .     S
S1813     Ce1814    9.988   .     S
S1813     Er1987    9.995   .     S
S1813     Ne1964    9.999   .     S
Ce1814     N1963    10.007   .     S
S1815     Ce1816    9.988   1_655     S
S1815     Er1982    9.995   .     S
S1815     Ne1948    9.999   .     S
S1815     S1797    10.001   1_655     S
Ce1816     S1815    9.988   1_455     S
Ce1816     N1947    10.007   1_455     S
Ce1816     Ce1810    10.013   1_455     S
S1817     Ce1818    9.988   1_655     S
S1817     Er1970    9.995   .     S
S1817     Ne1898    9.999   .     S
S1817     S1821    10.001   1_654     S
Ce1818     S1817    9.988   1_455     S
Ce1818     N1897    10.007   1_455     S
Ce1818     Ce1822    10.007   .     S
Ce1818     Ce1800    10.013   1_455     S
S1819     Ce1820    9.988   1_655     S
S1819     Er1986    9.995   .     S
S1819     Ne1930    9.999   .     S
S1819     S1777    10.001   1_655     S
Ce1820     S1819    9.988   1_455     S
Ce1820     N1929    10.007   1_455     S
Ce1820     Ce1788    10.013   1_455     S
S1821     Ce1822    9.988   1_556     S
S1821     Er1972    9.995   .     S
S1821     Ne1916    9.999   .     S
S1821     S1817    10.001   1_456     S
Ce1822     S1821    9.988   1_554     S
Ce1822     N1915    10.007   1_554     S
Ce1822     Ce1796    10.013   1_554     S
S1823     Ce1824    9.988   1_655     S
S1823     Er1977    9.995   .     S
S1823     Ne1904    9.999   .     S
S1823     S1795    10.001   1_655     S
Ce1824     S1823    9.988   1_455     S
Ce1824     N1903    10.007   1_455     S
Ce1824     Ce1792    10.013   1_456     S
Be1825     He1826    9.991   .     S
Be1825     Be1840    10.001   .     S
Be1825     Be1828    10.013   .     S
He1826     C1827    9.993   .     S
He1826     He1829    10.004   .     S
C1827     B1931    9.997   .     S
C1827     C1842    10.007   .     S
C1827     C1830    10.007   .     S
Be1828     He1829    9.991   .     S
Be1828     Be1837    10.001   .     S
He1829     C1830    9.993   .     S
C1830     B1913    9.997   .     S
C1830     C1839    10.007   .     S
Be1831     He1832    9.991   .     S
Be1831     Be1885    10.001   .     S
Be1831     Be1888    10.013   .     S
He1832     C1833    9.993   .     S
He1832     He1889    10.004   .     S
C1833     B1950    9.997   .     S
C1833     C1887    10.007   .     S
C1833     C1890    10.007   .     S
Be1834     He1835    9.991   .     S
Be1834     Be1861    10.001   .     S
Be1834     Be1882    10.013   .     S
He1835     C1836    9.993   .     S
He1835     He1883    10.004   .     S
C1836     B1956    9.997   .     S
C1836     C1863    10.007   .     S
C1836     C1884    10.007   .     S
Be1837     He1838    9.991   .     S
Be1837     Be1840    10.013   .     S
He1838     C1839    9.993   .     S
He1838     He1841    10.004   .     S
C1839     B1914    9.997   .     S
C1839     C1842    10.007   .     S
Be1840     He1841    9.991   .     S
He1841     C1842    9.993   .     S
C1842     B1932    9.997   .     S
Be1843     He1844    9.991   .     S
Be1843     Be1849    10.001   .     S
Be1843     Be1891    10.013   .     S
He1844     C1845    9.993   .     S
He1844     He1892    10.004   .     S
C1845     B1920    9.997   .     S
C1845     C1893    10.007   .     S
C1845     C1851    10.007   .     S
Be1846     He1847    9.991   .     S
Be1846     Be1855    10.001   .     S
Be1846     Be1894    10.013   .     S
He1847     C1848    9.993   .     S
He1847     He1895    10.004   .     S
C1848     B1902    9.997   .     S
C1848     C1896    10.007   .     S
C1848     C1857    10.007   .     S
Be1849     He1850    9.991   .     S
Be1849     Be1852    10.013   .     S
He1850     C1851    9.993   .     S
He1850     He1853    10.004   .     S
C1851     B1919    9.997   .     S
C1851     C1854    10.007   .     S
Be1852     He1853    9.991   .     S
Be1852     Be1891    10.001   .     S
He1853     C1854    9.993   .     S
C1854     B1937    9.997   .     S
C1854     C1893    10.007   .     S
Be1855     He1856    9.991   .     S
Be1855     Be1870    10.013   .     S
He1856     C1857    9.993   .     S
He1856     He1871    10.004   .     S
C1857     B1901    9.997   .     S
C1857     C1872    10.007   .     S
Be1858     He1859    9.991   .     S
Be1858     Be1876    10.001   .     S
Be1858     Be1879    10.013   .     S
Be1858     Li2612    10.016   .     S
He1859     C1860    9.993   .     S
He1859     H2611    10.001   .     S
He1859     He1880    10.004   .     S
C1860     B1908    9.997   .     S
C1860     C1881    10.007   .     S
C1860     C1878    10.007   .     S
Be1861     He1862    9.991   .     S
Be1861     Be1867    10.013   .     S
He1862     C1863    9.993   .     S
He1862     He1868    10.004   .     S
C1863     B1955    9.997   .     S
C1863     C1869    10.007   .     S
Be1864     He1865    9.991   .     S
Be1864     Be1888    10.001   .     S
Be1864     Be1885    10.013   .     S
He1865     C1866    9.993   .     S
He1865     He1886    10.004   .     S
C1866     B1967    9.997   .     S
C1866     C1887    10.007   .     S
C1866     C1890    10.007   .     S
Be1867     He1868    9.991   .     S
Be1867     Be1882    10.001   .     S
He1868     C1869    9.993   .     S
C1869     B1961    9.997   .     S
C1869     C1884    10.007   .     S
Be1870     He1871    9.991   .     S
Be1870     Be1894    10.001   .     S
He1871     C1872    9.993   .     S
C1872     B1925    9.997   .     S
C1872     C1896    10.007   .     S
Be1873     He1874    9.991   .     S
Be1873     Be1879    10.001   .     S
Be1873     Be1876    10.013   .     S
He1874     C1875    9.993   .     S
He1874     He1877    10.004   .     S
C1875     B1943    9.997   .     S
C1875     C1878    10.007   .     S
C1875     C1881    10.007   .     S
Be1876     He1877    9.991   .     S
He1877     C1878    9.993   .     S
C1878     B1907    9.997   .     S
Be1879     He1880    9.991   .     S
Be1879     Li2656    10.016   .     S
He1880     C1881    9.993   .     S
He1880     H2655    10.001   .     S
C1881     B1944    9.997   .     S
Be1882     He1883    9.991   .     S
He1883     C1884    9.993   .     S
C1884     B1962    9.997   .     S
Be1885     He1886    9.991   .     S
He1886     C1887    9.993   .     S
C1887     B1949    9.997   .     S
Be1888     He1889    9.991   .     S
He1889     C1890    9.993   .     S
C1890     B1968    9.997   .     S
Be1891     He1892    9.991   .     S
He1892     C1893    9.993   .     S
C1893     B1938    9.997   .     S
Be1894     He1895    9.991   .     S
He1895     C1896    9.993   .     S
C1896     B1926    9.997   .     S
N1897     Ne1898    9.989   .     S
N1897     N1899    10.001   .     S
N1897     Ce1818    10.007   1_655     S
N1897     O1693    10.013   1_655     S
Ne1898     B1902    9.992   .     S
N1899     Ne1900    9.989   .     S
Ne1900     B1901    9.992   .     S
B1901     B1902    9.989   .     S
B1901     Er1969    9.993   .     S
B1902     Er1970    9.993   .     S
N1903     Ne1904    9.989   .     S
N1903     N1905    10.001   .     S
N1903     Ce1824    10.007   1_655     S
N1903     O2613    10.013   1_655     S
Ne1904     B1908    9.992   .     S
Ne1904     F2614    10.001   .     S
N1905     Ne1906    9.989   .     S
N1905     Ce1792    10.007   1_556     S
N1905     O709    10.013   1_556     S
Ne1906     B1907    9.992   .     S
B1907     B1908    9.989   .     S
B1907     Er1978    9.993   .     S
B1908     Er1977    9.993   .     S
N1909     Ne1910    9.989   .     S
N1909     N1911    10.001   .     S
N1909     Ce1786    10.007   1_556     S
N1909     O567    10.013   1_556     S
Ne1910     B1914    9.992   .     S
N1911     Ne1912    9.989   .     S
Ne1912     B1913    9.992   .     S
B1913     B1914    9.989   .     S
B1913     Er1991    9.993   .     S
B1914     Er1992    9.993   .     S
N1915     Ne1916    9.989   .     S
N1915     N1917    10.001   .     S
N1915     Ce1822    10.007   1_556     S
N1915     O1709    10.013   1_556     S
Ne1916     B1920    9.992   .     S
N1917     Ne1918    9.989   .     S
Ne1918     B1919    9.992   .     S
B1919     B1920    9.989   .     S
B1919     Er1971    9.993   .     S
B1920     Er1972    9.993   .     S
N1921     Ne1922    9.989   .     S
N1921     N1923    10.001   .     S
Ne1922     B1926    9.992   .     S
N1923     Ne1924    9.989   .     S
Ne1924     B1925    9.992   .     S
B1925     B1926    9.989   .     S
B1925     Er1973    9.993   .     S
B1926     Er1974    9.993   .     S
N1927     Ne1928    9.989   .     S
N1927     N1929    10.001   .     S
Ne1928     B1931    9.992   .     S
N1929     Ne1930    9.989   .     S
N1929     Ce1820    10.007   1_655     S
N1929     O599    10.013   1_655     S
Ne1930     B1932    9.992   .     S
B1931     B1932    9.989   .     S
B1931     Er1985    9.993   .     S
B1932     Er1986    9.993   .     S
N1933     Ne1934    9.989   .     S
N1933     N1935    10.001   .     S
Ne1934     B1938    9.992   .     S
N1935     Ne1936    9.989   .     S
Ne1936     B1937    9.992   .     S
B1937     B1938    9.989   .     S
B1937     Er1976    9.993   .     S
B1938     Er1975    9.993   .     S
N1939     Ne1940    9.989   .     S
N1939     N1941    10.001   .     S
Ne1940     B1943    9.992   .     S
N1941     Ne1942    9.989   .     S
N1941     O2649    10.013   .     S
Ne1942     B1944    9.992   .     S
Ne1942     F2650    10.001   .     S
B1943     B1944    9.989   .     S
B1943     Er1983    9.993   .     S
B1944     Er1984    9.993   .     S
N1945     Ne1946    9.989   .     S
N1945     N1947    10.001   .     S
Ne1946     B1949    9.992   .     S
N1947     Ne1948    9.989   .     S
N1947     Ce1816    10.007   1_655     S
N1947     O417    10.013   1_655     S
Ne1948     B1950    9.992   .     S
B1949     B1950    9.989   .     S
B1949     Er1981    9.993   .     S
B1950     Er1982    9.993   .     S
N1951     Ne1952    9.989   .     S
N1951     N1953    10.001   .     S
Ne1952     B1955    9.992   .     S
N1953     Ne1954    9.989   .     S
N1953     Ce1802    10.007   1_556     S
N1953     O457    10.013   1_556     S
Ne1954     B1956    9.992   .     S
B1955     B1956    9.989   .     S
B1955     Er1979    9.993   .     S
B1956     Er1980    9.993   .     S
N1957     Ne1958    9.989   .     S
N1957     N1959    10.001   .     S
Ne1958     B1962    9.992   .     S
N1959     Ne1960    9.989   .     S
Ne1960     B1961    9.992   .     S
B1961     B1962    9.989   .     S
B1961     Er1989    9.993   .     S
B1962     Er1990    9.993   .     S
N1963     Ne1964    9.989   .     S
N1963     N1965    10.001   .     S
Ne1964     B1967    9.992   .     S
N1965     Ne1966    9.989   .     S
Ne1966     B1968    9.992   .     S
B1967     B1968    9.989   .     S
B1967     Er1987    9.993   .     S
B1968     Er1988    9.993   .     S
Er1969     Er1970    9.986   .     S
Er1969     Ti2006    9.992   1_554     S
Er1970     Ti2005    9.992   1_554     S
Er1971     Er1972    9.986   .     S
Er1971     Ti2009    9.992   1_455     S
Er1972     Ti2010    9.992   1_455     S
Er1973     Er1974    9.986   .     S
Er1973     Ti2023    9.992   1_554     S
Er1974     Ti2024    9.992   1_554     S
Er1975     Er1976    9.986   .     S
Er1975     Ti2021    9.992   1_455     S
Er1976     Ti2022    9.992   1_455     S
Er1977     Er1978    9.986   .     S
Er1977     Ti2033    9.992   .     S
Er1978     Ti2034    9.992   .     S
Er1979     Er1980    9.986   .     S
Er1979     Ti2004    9.992   .     S
Er1980     Ti2003    9.992   .     S
Er1981     Er1982    9.986   .     S
Er1981     Ti2020    9.992   .     S
Er1982     Ti2019    9.992   .     S
Er1983     Er1984    9.986   .     S
Er1983     Ti2032    9.992   .     S
Er1984     Ti2031    9.992   .     S
Er1985     Er1986    9.986   .     S
Er1985     Ti2008    9.992   .     S
Er1986     Ti2007    9.992   .     S
Er1987     Er1988    9.986   .     S
Er1987     Ti2000    9.992   .     S
Er1988     Ti1999    9.992   .     S
Er1989     Er1990    9.986   .     S
Er1989     Ti2018    9.992   .     S
Er1990     Ti2017    9.992   .     S
Er1991     Er1992    9.986   .     S
Er1991     Ti2002    9.992   .     S
Er1992     Ti2001    9.992   .     S
V1993     V1994    9.986   .     S
V1993     Ti2020    9.993   .     S
V1993     V1997    9.992   .     S
V1993     V2038    9.998   .     S
V1994     Ti2008    9.993   .     S
V1994     V1996    9.992   .     S
V1994     V2012    9.998   .     S
V1995     V1996    9.986   .     S
V1995     Ti2004    9.993   .     S
V1995     V1998    9.992   .     S
V1995     V2026    9.998   .     S
V1996     Ti2002    9.993   .     S
V1996     V2014    9.998   .     S
V1997     V1998    9.986   .     S
V1997     Ti2000    9.993   .     S
V1997     V2040    9.998   .     S
V1998     Ti2018    9.993   .     S
V1998     V2030    9.998   .     S
Ti1999     Ti2000    9.989   .     S
Ti1999     V2040    9.993   .     S
Ti1999     Ti2031    9.995   .     S
Ti2000     Ti2018    9.995   .     S
Ti2001     Ti2002    9.989   .     S
Ti2001     V2014    9.993   .     S
Ti2001     Ti2024    9.995   .     S
Ti2002     Ti2004    9.995   .     S
Ti2003     Ti2004    9.989   .     S
Ti2003     V2026    9.993   .     S
Ti2003     Ti2023    9.995   .     S
Ti2005     Er1970    9.992   1_556     S
Ti2005     Ti2006    9.989   .     S
Ti2005     V2016    9.993   .     S
Ti2005     Ti2010    9.995   .     S
Ti2006     Er1969    9.992   1_556     S
Ti2006     V2027    9.993   .     S
Ti2006     Ti2034    9.995   .     S
Ti2007     Ti2008    9.989   .     S
Ti2007     V2012    9.993   .     S
Ti2007     Ti2021    9.995   .     S
Ti2008     Ti2020    9.995   .     S
Ti2009     Er1971    9.992   1_655     S
Ti2009     Ti2010    9.989   .     S
Ti2009     V2036    9.993   .     S
Ti2009     Ti2033    9.995   .     S
Ti2010     Er1972    9.992   1_655     S
Ti2010     V2015    9.993   .     S
V2011     V2012    9.986   .     S
V2011     Ti2021    9.993   .     S
V2011     V2015    9.992   .     S
V2011     V2037    9.998   .     S
V2012     V2014    9.992   .     S
V2013     V2014    9.986   .     S
V2013     Ti2024    9.993   .     S
V2013     V2016    9.992   .     S
V2013     V2025    9.998   .     S
V2015     V2016    9.986   .     S
V2015     V2036    9.998   .     S
V2016     V2027    9.998   .     S
Ti2017     Ti2018    9.989   .     S
Ti2017     V2030    9.993   .     S
Ti2017     Ti2032    9.995   .     S
Ti2019     Ti2020    9.989   .     S
Ti2019     V2038    9.993   .     S
Ti2019     Ti2022    9.995   .     S
Ti2021     Er1975    9.992   1_655     S
Ti2021     Ti2022    9.989   .     S
Ti2022     Er1976    9.992   1_655     S
Ti2022     V2037    9.993   .     S
Ti2023     Er1973    9.992   1_556     S
Ti2023     Ti2024    9.989   .     S
Ti2023     V2025    9.993   .     S
Ti2024     Er1974    9.992   1_556     S
V2025     V2026    9.986   .     S
V2025     V2027    9.992   .     S
V2026     V2030    9.992   .     S
V2027     V2028    9.986   .     S
V2028     Ti2034    9.993   .     S
V2028     V2029    9.992   .     S
V2028     V2035    9.998   .     S
V2029     V2030    9.986   .     S
V2029     Ti2032    9.993   .     S
V2029     V2039    9.998   .     S
Ti2031     Ti2032    9.989   .     S
Ti2031     V2039    9.993   .     S
Ti2033     Ti2034    9.989   .     S
Ti2033     V2035    9.993   .     S
V2035     V2036    9.986   .     S
V2035     V2039    9.992   .     S
V2036     V2037    9.992   .     S
V2037     V2038    9.986   .     S
V2038     V2040    9.992   .     S
V2039     V2040    9.986   .     S
H2041     Li2042    9.991   .     S
H2041     F2044    9.995   .     S
H2041     F2048    9.998   .     S
H2041     He2750    10.001   .     S
Li2042     O2043    10.007   .     S
Li2042     Be2749    10.016   .     S
O2043     F2044    9.992   .     S
O2043     N2219    10.013   .     S
F2044     H2045    9.998   .     S
F2044     Ne2220    10.001   .     S
H2045     Li2046    9.991   .     S
H2045     F2048    9.995   .     S
H2045     He2175    10.001   .     S
Li2046     O2047    10.007   .     S
Li2046     Be2174    10.016   .     S
O2047     F2048    9.992   .     S
O2047     N2815    10.013   .     S
F2048     Ne2816    10.001   .     S
H2049     Li2050    9.991   .     S
H2049     F2052    9.995   .     S
H2049     F2056    9.998   .     S
H2049     He2756    10.001   .     S
Li2050     O2051    10.007   .     S
Li2050     Be2755    10.016   .     S
O2051     F2052    9.992   .     S
O2051     N2243    10.013   .     S
F2052     H2053    9.998   .     S
F2052     Ne2244    10.001   .     S
H2053     Li2054    9.991   .     S
H2053     F2056    9.995   .     S
H2053     He2166    10.001   .     S
Li2054     O2055    10.007   .     S
Li2054     Be2165    10.016   .     S
O2055     F2056    9.992   .     S
O2055     N2805    10.013   .     S
F2056     Ne2806    10.001   .     S
S2057     Ce2058    9.988   .     S
S2057     Er2256    9.995   .     S
S2057     Ne2210    9.999   .     S
S2057     S2099    10.001   1_554     S
Ce2058     N2209    10.007   .     S
Ce2058     Ce2100    10.007   .     S
Ce2058     Ce2070    10.013   .     S
S2059     Ce2060    9.988   .     S
S2059     Er2268    9.995   .     S
S2059     Ne2240    9.999   .     S
S2059     S2073    10.001   .     S
Ce2060     N2239    10.007   .     S
Ce2060     Ce2074    10.007   .     S
Ce2060     Ce2096    10.013   .     S
S2061     Ce2062    9.988   .     S
S2061     Er2269    9.995   .     S
S2061     Ne2244    9.999   .     S
S2061     S2071    10.001   .     S
Ce2062     N2243    10.007   .     S
Ce2062     Ce2072    10.007   .     S
Ce2062     Ce2098    10.013   .     S
S2063     Ce2064    9.988   .     S
S2063     Er2259    9.995   .     S
S2063     Ne2234    9.999   .     S
S2063     S2077    10.001   .     S
Ce2064     N2233    10.007   .     S
Ce2064     Ce2078    10.007   .     S
Ce2064     Ce2104    10.013   1_565     S
S2065     Ce2066    9.988   .     S
S2065     Er2265    9.995   .     S
S2065     Ne2216    9.999   .     S
S2065     S2091    10.001   .     S
Ce2066     N2215    10.007   .     S
Ce2066     Ce2092    10.007   .     S
Ce2066     Ce2100    10.013   1_556     S
S2067     Ce2068    9.988   1_565     S
S2067     Er2272    9.995   .     S
S2067     Ne2190    9.999   .     S
S2067     S2081    10.001   1_565     S
Ce2068     S2067    9.988   1_545     S
Ce2068     N2189    10.007   1_545     S
Ce2068     Ce2082    10.007   .     S
Ce2068     Ce2078    10.013   1_545     S
S2069     Ce2070    9.988   .     S
S2069     Er2255    9.995   .     S
S2069     Ne2208    9.999   .     S
S2069     S2093    10.001   1_554     S
Ce2070     N2207    10.007   .     S
Ce2070     Ce2094    10.007   .     S
S2071     Ce2072    9.988   .     S
S2071     Er2263    9.995   .     S
S2071     Ne2220    9.999   .     S
Ce2072     N2219    10.007   .     S
Ce2072     Ce2074    10.013   .     S
S2073     Ce2074    9.988   .     S
S2073     Er2264    9.995   .     S
S2073     Ne2222    9.999   .     S
Ce2074     N2221    10.007   .     S
S2075     Ce2076    9.988   .     S
S2075     Er2251    9.995   .     S
S2075     Ne2180    9.999   .     S
S2075     S2089    10.001   1_545     S
Ce2076     N2179    10.007   .     S
Ce2076     Ce2090    10.007   .     S
Ce2076     Ce2086    10.013   1_556     S
S2077     Ce2078    9.988   .     S
S2077     Er2271    9.995   .     S
S2077     Ne2192    9.999   .     S
Ce2078     N2191    10.007   .     S
Ce2078     Ce2068    10.013   1_565     S
S2079     Ce2080    9.988   1_565     S
S2079     Er2249    9.995   .     S
S2079     Ne2196    9.999   .     S
S2079     S2085    10.001   1_564     S
Ce2080     S2079    9.988   1_545     S
Ce2080     N2195    10.007   1_545     S
Ce2080     Ce2086    10.007   .     S
Ce2080     Ce2102    10.013   1_545     S
S2081     Ce2082    9.988   .     S
S2081     Er2254    9.995   .     S
S2081     Ne2202    9.999   .     S
S2081     S2067    10.001   1_545     S
Ce2082     N2201    10.007   .     S
Ce2082     Ce2088    10.013   .     S
S2083     Ce2084    9.988   1_556     S
S2083     Er2258    9.995   .     S
S2083     Ne2184    9.999   .     S
S2083     S2101    10.001   1_556     S
Ce2084     S2083    9.988   1_554     S
Ce2084     N2183    10.007   1_554     S
Ce2084     Ce2102    10.007   .     S
Ce2084     Ce2090    10.013   1_564     S
S2085     Ce2086    9.988   1_556     S
S2085     Er2252    9.995   .     S
S2085     Ne2178    9.999   .     S
S2085     S2079    10.001   1_546     S
Ce2086     S2085    9.988   1_554     S
Ce2086     N2177    10.007   1_554     S
Ce2086     Ce2076    10.013   1_554     S
S2087     Ce2088    9.988   .     S
S2087     Er2253    9.995   .     S
S2087     Ne2204    9.999   .     S
S2087     S2103    10.001   1_545     S
Ce2088     N2203    10.007   .     S
Ce2088     Ce2104    10.007   .     S
S2089     Ce2090    9.988   1_565     S
S2089     Er2257    9.995   .     S
S2089     Ne2186    9.999   .     S
S2089     S2075    10.001   1_565     S
Ce2090     S2089    9.988   1_545     S
Ce2090     N2185    10.007   1_545     S
Ce2090     Ce2084    10.013   1_546     S
S2091     Ce2092    9.988   .     S
S2091     Er2261    9.995   .     S
S2091     Ne2226    9.999   .     S
Ce2092     N2225    10.007   .     S
Ce2092     Ce2094    10.013   1_556     S
S2093     Ce2094    9.988   1_556     S
S2093     Er2262    9.995   .     S
S2093     Ne2228    9.999   .     S
S2093     S2069    10.001   1_556     S
Ce2094     S2093    9.988   1_554     S
Ce2094     N2227    10.007   1_554     S
Ce2094     Ce2092    10.013   1_554     S
S2095     Ce2096    9.988   .     S
S2095     Er2267    9.995   .     S
S2095     Ne2238    9.999   .     S
S2095     S2097    10.001   .     S
Ce2096     N2237    10.007   .     S
Ce2096     Ce2098    10.007   .     S
S2097     Ce2098    9.988   .     S
S2097     Er2270    9.995   .     S
S2097     Ne2246    9.999   .     S
Ce2098     N2245    10.007   .     S
S2099     Ce2100    9.988   1_556     S
S2099     Er2266    9.995   .     S
S2099     Ne2214    9.999   .     S
S2099     S2057    10.001   1_556     S
Ce2100     S2099    9.988   1_554     S
Ce2100     N2213    10.007   1_554     S
Ce2100     Ce2066    10.013   1_554     S
S2101     Ce2102    9.988   .     S
S2101     Er2250    9.995   .     S
S2101     Ne2198    9.999   .     S
S2101     S2083    10.001   1_554     S
Ce2102     N2197    10.007   .     S
Ce2102     Ce2080    10.013   1_565     S
S2103     Ce2104    9.988   1_565     S
S2103     Er2260    9.995   .     S
S2103     Ne2232    9.999   .     S
S2103     S2087    10.001   1_565     S
Ce2104     S2103    9.988   1_545     S
Ce2104     N2231    10.007   1_545     S
Ce2104     Ce2064    10.013   1_545     S
Be2105     He2106    9.991   .     S
Be2105     Be2120    10.001   .     S
Be2105     Be2108    10.013   .     S
He2106     C2107    9.993   .     S
He2106     He2109    10.004   .     S
C2107     B2193    9.997   .     S
C2107     C2122    10.007   .     S
C2107     C2110    10.007   .     S
Be2108     He2109    9.991   .     S
Be2108     Be2117    10.001   .     S
He2109     C2110    9.993   .     S
C2110     B2217    9.997   .     S
C2110     C2119    10.007   .     S
Be2111     He2112    9.991   .     S
Be2111     Be2138    10.001   .     S
Be2111     Be2135    10.013   .     S
He2112     C2113    9.993   .     S
He2112     He2136    10.004   .     S
C2113     B2230    9.997   .     S
C2113     C2137    10.007   .     S
C2113     C2140    10.007   .     S
Be2114     He2115    9.991   .     S
Be2114     Be2144    10.001   .     S
Be2114     Be2165    10.013   .     S
He2115     C2116    9.993   .     S
He2115     He2166    10.004   .     S
C2116     B2236    9.997   .     S
C2116     C2146    10.007   .     S
C2116     C2167    10.007   .     S
Be2117     He2118    9.991   .     S
Be2117     Be2120    10.013   .     S
He2118     C2119    9.993   .     S
He2118     He2121    10.004   .     S
C2119     B2218    9.997   .     S
C2119     C2122    10.007   .     S
Be2120     He2121    9.991   .     S
He2121     C2122    9.993   .     S
C2122     B2194    9.997   .     S
Be2123     He2124    9.991   .     S
Be2123     Be2129    10.001   .     S
Be2123     Be2168    10.013   .     S
He2124     C2125    9.993   .     S
He2124     He2169    10.004   .     S
C2125     B2182    9.997   .     S
C2125     C2131    10.007   .     S
C2125     C2170    10.007   .     S
Be2126     He2127    9.991   .     S
Be2126     Be2153    10.001   .     S
Be2126     Be2171    10.013   .     S
He2127     C2128    9.993   .     S
He2127     He2172    10.004   .     S
C2128     B2200    9.997   .     S
C2128     C2173    10.007   .     S
C2128     C2155    10.007   .     S
Be2129     He2130    9.991   .     S
Be2129     Be2150    10.013   .     S
Be2129     Li2618    10.016   .     S
He2130     C2131    9.993   .     S
He2130     H2617    10.001   .     S
He2130     He2151    10.004   .     S
C2131     B2181    9.997   .     S
C2131     C2152    10.007   .     S
Be2132     He2133    9.991   .     S
Be2132     Be2156    10.001   .     S
Be2132     Be2159    10.013   .     S
Be2132     Li2940    10.016   .     S
He2133     C2134    9.993   .     S
He2133     H2939    10.001   .     S
He2133     He2160    10.004   .     S
C2134     B2187    9.997   .     S
C2134     C2161    10.007   .     S
C2134     C2158    10.007   .     S
Be2135     He2136    9.991   .     S
Be2135     Be2147    10.001   .     S
He2136     C2137    9.993   .     S
C2137     B2241    9.997   .     S
C2137     C2149    10.007   .     S
Be2138     He2139    9.991   .     S
Be2138     Be2147    10.013   .     S
He2139     C2140    9.993   .     S
He2139     He2148    10.004   .     S
C2140     B2229    9.997   .     S
C2140     C2149    10.007   .     S
Be2141     He2142    9.991   .     S
Be2141     Be2165    10.001   .     S
Be2141     Be2144    10.013   .     S
He2142     C2143    9.993   .     S
He2142     He2145    10.004   .     S
C2143     B2247    9.997   .     S
C2143     C2146    10.007   .     S
C2143     C2167    10.007   .     S
Be2144     He2145    9.991   .     S
He2145     C2146    9.993   .     S
C2146     B2235    9.997   .     S
Be2147     He2148    9.991   .     S
He2148     C2149    9.993   .     S
C2149     B2242    9.997   .     S
Be2150     He2151    9.991   .     S
Be2150     Be2168    10.001   .     S
Be2150     Li2660    10.016   .     S
He2151     C2152    9.993   .     S
He2151     H2659    10.001   .     S
C2152     B2205    9.997   .     S
C2152     C2170    10.007   .     S
Be2153     He2154    9.991   .     S
Be2153     Be2162    10.013   .     S
Be2153     Li2954    10.016   .     S
He2154     C2155    9.993   .     S
He2154     H2953    10.001   .     S
He2154     He2163    10.004   .     S
C2155     B2199    9.997   .     S
C2155     C2164    10.007   .     S
Be2156     He2157    9.991   .     S
Be2156     Be2174    10.013   .     S
Be2156     Li2628    10.016   .     S
He2157     C2158    9.993   .     S
He2157     H2627    10.001   .     S
He2157     He2175    10.004   .     S
C2158     B2188    9.997   .     S
C2158     C2176    10.007   .     S
Be2159     He2160    9.991   .     S
Be2159     Be2174    10.001   .     S
Be2159     Li2992    10.016   .     S
He2160     C2161    9.993   .     S
He2160     H2991    10.001   .     S
C2161     B2223    9.997   .     S
C2161     C2176    10.007   .     S
Be2162     He2163    9.991   .     S
Be2162     Be2171    10.001   .     S
He2163     C2164    9.993   .     S
C2164     B2212    9.997   .     S
C2164     C2173    10.007   .     S
Be2165     He2166    9.991   .     S
He2166     C2167    9.993   .     S
C2167     B2248    9.997   .     S
Be2168     He2169    9.991   .     S
He2169     C2170    9.993   .     S
C2170     B2206    9.997   .     S
Be2171     He2172    9.991   .     S
He2172     C2173    9.993   .     S
C2173     B2211    9.997   .     S
Be2174     He2175    9.991   .     S
He2175     C2176    9.993   .     S
C2176     B2224    9.997   .     S
N2177     Ne2178    9.989   .     S
N2177     N2179    10.001   .     S
N2177     Ce2086    10.007   1_556     S
N2177     O645    10.013   1_556     S
Ne2178     B2182    9.992   .     S
N2179     Ne2180    9.989   .     S
N2179     O2623    10.013   .     S
Ne2180     B2181    9.992   .     S
Ne2180     F2624    10.001   .     S
B2181     B2182    9.989   .     S
B2181     Er2251    9.993   .     S
B2182     Er2252    9.993   .     S
N2183     Ne2184    9.989   .     S
N2183     N2185    10.001   .     S
N2183     Ce2084    10.007   1_556     S
N2183     O2941    10.013   1_556     S
Ne2184     B2187    9.992   .     S
Ne2184     F2942    10.001   .     S
N2185     Ne2186    9.989   .     S
N2185     Ce2090    10.007   1_565     S
N2185     O2629    10.013   1_565     S
Ne2186     B2188    9.992   .     S
Ne2186     F2630    10.001   .     S
B2187     B2188    9.989   .     S
B2187     Er2258    9.993   .     S
B2188     Er2257    9.993   .     S
N2189     Ne2190    9.989   .     S
N2189     N2191    10.001   .     S
N2189     Ce2068    10.007   1_565     S
N2189     O575    10.013   1_565     S
Ne2190     B2194    9.992   .     S
N2191     Ne2192    9.989   .     S
Ne2192     B2193    9.992   .     S
B2193     B2194    9.989   .     S
B2193     Er2271    9.993   .     S
B2194     Er2272    9.993   .     S
N2195     Ne2196    9.989   .     S
N2195     N2197    10.001   .     S
N2195     Ce2080    10.007   1_565     S
N2195     O661    10.013   1_565     S
Ne2196     B2200    9.992   .     S
N2197     Ne2198    9.989   .     S
N2197     O2959    10.013   .     S
Ne2198     B2199    9.992   .     S
Ne2198     F2960    10.001   .     S
B2199     B2200    9.989   .     S
B2199     Er2250    9.993   .     S
B2200     Er2249    9.993   .     S
N2201     Ne2202    9.989   .     S
N2201     N2203    10.001   .     S
Ne2202     B2206    9.992   .     S
N2203     Ne2204    9.989   .     S
N2203     O2663    10.013   .     S
Ne2204     B2205    9.992   .     S
Ne2204     F2664    10.001   .     S
B2205     B2206    9.989   .     S
B2205     Er2253    9.993   .     S
B2206     Er2254    9.993   .     S
N2207     Ne2208    9.989   .     S
N2207     N2209    10.001   .     S
Ne2208     B2212    9.992   .     S
N2209     Ne2210    9.989   .     S
Ne2210     B2211    9.992   .     S
B2211     B2212    9.989   .     S
B2211     Er2256    9.993   .     S
B2212     Er2255    9.993   .     S
N2213     Ne2214    9.989   .     S
N2213     N2215    10.001   .     S
N2213     Ce2100    10.007   1_556     S
N2213     O543    10.013   1_556     S
Ne2214     B2218    9.992   .     S
N2215     Ne2216    9.989   .     S
Ne2216     B2217    9.992   .     S
B2217     B2218    9.989   .     S
B2217     Er2265    9.993   .     S
B2218     Er2266    9.993   .     S
N2219     Ne2220    9.989   .     S
N2219     N2221    10.001   .     S
Ne2220     B2224    9.992   .     S
N2221     Ne2222    9.989   .     S
N2221     O2985    10.013   .     S
Ne2222     B2223    9.992   .     S
Ne2222     F2986    10.001   .     S
B2223     B2224    9.989   .     S
B2223     Er2264    9.993   .     S
B2224     Er2263    9.993   .     S
N2225     Ne2226    9.989   .     S
N2225     N2227    10.001   .     S
Ne2226     B2229    9.992   .     S
N2227     Ne2228    9.989   .     S
N2227     Ce2094    10.007   1_556     S
N2227     O409    10.013   1_556     S
Ne2228     B2230    9.992   .     S
B2229     B2230    9.989   .     S
B2229     Er2261    9.993   .     S
B2230     Er2262    9.993   .     S
N2231     Ne2232    9.989   .     S
N2231     N2233    10.001   .     S
N2231     Ce2104    10.007   1_565     S
N2231     O633    10.013   1_565     S
Ne2232     B2236    9.992   .     S
N2233     Ne2234    9.989   .     S
Ne2234     B2235    9.992   .     S
B2235     B2236    9.989   .     S
B2235     Er2259    9.993   .     S
B2236     Er2260    9.993   .     S
N2237     Ne2238    9.989   .     S
N2237     N2239    10.001   .     S
Ne2238     B2242    9.992   .     S
N2239     Ne2240    9.989   .     S
Ne2240     B2241    9.992   .     S
B2241     B2242    9.989   .     S
B2241     Er2268    9.993   .     S
B2242     Er2267    9.993   .     S
N2243     Ne2244    9.989   .     S
N2243     N2245    10.001   .     S
Ne2244     B2248    9.992   .     S
N2245     Ne2246    9.989   .     S
Ne2246     B2247    9.992   .     S
B2247     B2248    9.989   .     S
B2247     Er2270    9.993   .     S
B2248     Er2269    9.993   .     S
Er2249     Er2250    9.986   .     S
Er2249     Ti2309    9.992   1_554     S
Er2250     Ti2310    9.992   1_554     S
Er2251     Er2252    9.986   .     S
Er2251     Ti2294    9.992   1_545     S
Er2252     Ti2293    9.992   1_545     S
Er2253     Er2254    9.986   .     S
Er2253     Ti2299    9.992   1_545     S
Er2254     Ti2300    9.992   1_545     S
Er2255     Er2256    9.986   .     S
Er2255     Ti2290    9.992   1_554     S
Er2256     Ti2289    9.992   1_554     S
Er2257     Er2258    9.986   .     S
Er2257     Ti2312    9.992   .     S
Er2258     Ti2311    9.992   .     S
Er2259     Er2260    9.986   .     S
Er2259     Ti2301    9.992   .     S
Er2260     Ti2302    9.992   .     S
Er2261     Er2262    9.986   .     S
Er2261     Ti2298    9.992   .     S
Er2262     Ti2297    9.992   .     S
Er2263     Er2264    9.986   .     S
Er2263     Ti2314    9.992   .     S
Er2264     Ti2313    9.992   .     S
Er2265     Er2266    9.986   .     S
Er2265     Ti2282    9.992   .     S
Er2266     Ti2281    9.992   .     S
Er2267     Er2268    9.986   .     S
Er2267     Ti2292    9.992   .     S
Er2268     Ti2291    9.992   .     S
Er2269     Er2270    9.986   .     S
Er2269     Ti2295    9.992   .     S
Er2270     Ti2296    9.992   .     S
Er2271     Er2272    9.986   .     S
Er2271     Ti2280    9.992   .     S
Er2272     Ti2279    9.992   .     S
V2273     V2274    9.986   .     S
V2273     Ti2298    9.993   .     S
V2273     V2278    9.992   .     S
V2273     V2318    9.998   .     S
V2274     Ti2282    9.993   .     S
V2274     V2275    9.992   .     S
V2274     V2286    9.998   .     S
V2275     V2276    9.986   .     S
V2275     Ti2280    9.993   .     S
V2275     V2284    9.998   .     S
V2276     Ti2301    9.993   .     S
V2276     V2277    9.992   .     S
V2276     V2303    9.998   .     S
V2277     V2278    9.986   .     S
V2277     Ti2296    9.993   .     S
V2277     V2307    9.998   .     S
V2278     Ti2292    9.993   .     S
V2278     V2320    9.998   .     S
Ti2279     Ti2280    9.989   .     S
Ti2279     V2284    9.993   .     S
Ti2279     Ti2300    9.995   .     S
Ti2280     Ti2301    9.995   .     S
Ti2281     Ti2282    9.989   .     S
Ti2281     V2286    9.993   .     S
Ti2281     Ti2289    9.995   .     S
Ti2282     Ti2298    9.995   .     S
V2283     V2284    9.986   .     S
V2283     Ti2300    9.993   .     S
V2283     V2287    9.992   .     S
V2283     V2304    9.998   .     S
V2284     V2286    9.992   .     S
V2285     V2286    9.986   .     S
V2285     Ti2289    9.993   .     S
V2285     V2288    9.992   .     S
V2285     V2317    9.998   .     S
V2287     V2288    9.986   .     S
V2287     Ti2293    9.993   .     S
V2287     V2305    9.998   .     S
V2288     Ti2309    9.993   .     S
V2288     V2315    9.998   .     S
Ti2289     Er2256    9.992   1_556     S
Ti2289     Ti2290    9.989   .     S
Ti2290     Er2255    9.992   1_556     S
Ti2290     V2317    9.993   .     S
Ti2290     Ti2297    9.995   .     S
Ti2291     Ti2292    9.989   .     S
Ti2291     V2320    9.993   .     S
Ti2291     Ti2313    9.995   .     S
Ti2292     Ti2296    9.995   .     S
Ti2293     Er2252    9.992   1_565     S
Ti2293     Ti2294    9.989   .     S
Ti2293     Ti2309    9.995   .     S
Ti2294     Er2251    9.992   1_565     S
Ti2294     V2305    9.993   .     S
Ti2294     Ti2312    9.995   .     S
Ti2295     Ti2296    9.989   .     S
Ti2295     V2307    9.993   .     S
Ti2295     Ti2314    9.995   .     S
Ti2297     Ti2298    9.989   .     S
Ti2297     V2318    9.993   .     S
Ti2299     Er2253    9.992   1_565     S
Ti2299     Ti2300    9.989   .     S
Ti2299     V2304    9.993   .     S
Ti2299     Ti2302    9.995   .     S
Ti2300     Er2254    9.992   1_565     S
Ti2301     Ti2302    9.989   .     S
Ti2302     V2303    9.993   .     S
V2303     V2304    9.986   .     S
V2303     V2307    9.992   .     S
V2304     V2305    9.992   .     S
V2305     V2306    9.986   .     S
V2306     Ti2312    9.993   .     S
V2306     V2308    9.992   .     S
V2306     V2316    9.998   .     S
V2307     V2308    9.986   .     S
V2308     Ti2314    9.993   .     S
V2308     V2319    9.998   .     S
Ti2309     Er2249    9.992   1_556     S
Ti2309     Ti2310    9.989   .     S
Ti2310     Er2250    9.992   1_556     S
Ti2310     V2315    9.993   .     S
Ti2310     Ti2311    9.995   .     S
Ti2311     Ti2312    9.989   .     S
Ti2311     V2316    9.993   .     S
Ti2313     Ti2314    9.989   .     S
Ti2313     V2319    9.993   .     S
V2315     V2316    9.986   .     S
V2315     V2317    9.992   .     S
V2316     V2319    9.992   .     S
V2317     V2318    9.986   .     S
V2318     V2320    9.992   .     S
V2319     V2320    9.986   .     S
H2321     Li2322    9.991   .     S
H2321     F2324    9.995   .     S
H2321     F2326    9.998   .     S
H2321     He3092    10.001   .     S
Li2322     O2323    10.007   .     S
Li2322     Be3091    10.016   .     S
O2323     F2324    9.992   .     S
O2323     N2467    10.013   .     S
F2324     H2327    9.998   .     S
F2324     Ne2468    10.001   .     S
O2325     F2326    9.992   .     S
O2325     Li2328    10.007   .     S
O2325     N3171    10.013   .     S
F2326     H2327    9.995   .     S
F2326     Ne3172    10.001   .     S
H2327     Li2328    9.991   .     S
H2327     He2442    10.001   .     S
Li2328     Be2441    10.016   .     S
O2329     F2330    9.992   .     S
O2329     Li2332    10.007   .     S
O2329     N2835    10.013   .     S
F2330     H2331    9.995   .     S
F2330     H2333    9.998   .     S
F2330     Ne2836    10.001   .     S
H2331     Li2332    9.991   .     S
H2331     F2336    9.998   .     S
H2331     He2439    10.001   .     S
Li2332     Be2438    10.016   .     S
H2333     Li2334    9.991   .     S
H2333     F2336    9.995   .     S
H2333     He2759    10.001   .     S
Li2334     O2335    10.007   .     S
Li2334     Be2758    10.016   .     S
O2335     F2336    9.992   .     S
O2335     N2473    10.013   .     S
F2336     Ne2474    10.001   .     S
O2337     F2338    9.992   .     S
O2337     Li2340    10.007   .     S
O2337     N2509    10.013   .     S
F2338     H2339    9.995   .     S
F2338     H2343    9.998   .     S
F2338     Ne2510    10.001   .     S
H2339     Li2340    9.991   .     S
H2339     F2342    9.998   .     S
H2339     He3062    10.001   .     S
Li2340     Be3061    10.016   .     S
O2341     F2342    9.992   .     S
O2341     Li2344    10.007   .     S
O2341     N3139    10.013   .     S
F2342     H2343    9.995   .     S
F2342     Ne3140    10.001   .     S
H2343     Li2344    9.991   .     S
H2343     He2415    10.001   .     S
Li2344     Be2414    10.016   .     S
S2345     Ce2346    9.988   .     S
S2345     Er2554    9.995   .     S
S2345     Ne2522    9.999   .     S
S2345     S2357    10.001   .     S
Ce2346     N2521    10.007   .     S
Ce2346     Ce2358    10.007   .     S
Ce2346     Ce2356    10.013   .     S
S2347     Ce2348    9.988   .     S
S2347     Er2550    9.995   .     S
S2347     Ne2534    9.999   .     S
S2347     S2361    10.001   .     S
Ce2348     N2533    10.007   .     S
Ce2348     Ce2362    10.007   .     S
Ce2348     Ce2352    10.013   .     S
S2349     Ce2350    9.988   .     S
S2349     Er2558    9.995   .     S
S2349     Ne2528    9.999   .     S
S2349     S2359    10.001   .     S
Ce2350     N2527    10.007   .     S
Ce2350     Ce2360    10.007   .     S
Ce2350     Ce2354    10.013   .     S
S2351     Ce2352    9.988   .     S
S2351     Er2549    9.995   .     S
S2351     Ne2532    9.999   .     S
S2351     S2383    10.001   .     S
Ce2352     N2531    10.007   .     S
Ce2352     Ce2384    10.007   .     S
S2353     Ce2354    9.988   .     S
S2353     Er2557    9.995   .     S
S2353     Ne2526    9.999   .     S
S2353     S2385    10.001   .     S
Ce2354     N2525    10.007   .     S
Ce2354     Ce2386    10.007   .     S
S2355     Ce2356    9.988   .     S
S2355     Er2553    9.995   .     S
S2355     Ne2520    9.999   .     S
S2355     S2387    10.001   .     S
Ce2356     N2519    10.007   .     S
Ce2356     Ce2388    10.007   .     S
S2357     Ce2358    9.988   .     S
S2357     Er2537    9.995   .     S
S2357     Ne2504    9.999   .     S
Ce2358     N2503    10.007   .     S
Ce2358     Ce2366    10.013   .     S
S2359     Ce2360    9.988   .     S
S2359     Er2539    9.995   .     S
S2359     Ne2486    9.999   .     S
Ce2360     N2485    10.007   .     S
Ce2360     Ce2368    10.013   .     S
S2361     Ce2362    9.988   .     S
S2361     Er2543    9.995   .     S
S2361     Ne2498    9.999   .     S
Ce2362     N2497    10.007   .     S
Ce2362     Ce2364    10.013   .     S
S2363     Ce2364    9.988   .     S
S2363     Er2544    9.995   .     S
S2363     Ne2496    9.999   .     S
S2363     S2369    10.001   .     S
Ce2364     N2495    10.007   .     S
Ce2364     Ce2370    10.007   .     S
S2365     Ce2366    9.988   .     S
S2365     Er2538    9.995   .     S
S2365     Ne2502    9.999   .     S
S2365     S2391    10.001   .     S
Ce2366     N2501    10.007   .     S
Ce2366     Ce2392    10.007   .     S
S2367     Ce2368    9.988   .     S
S2367     Er2540    9.995   .     S
S2367     Ne2484    9.999   .     S
S2367     S2389    10.001   .     S
Ce2368     N2483    10.007   .     S
Ce2368     Ce2390    10.007   .     S
S2369     Ce2370    9.988   .     S
S2369     Er2559    9.995   .     S
S2369     Ne2516    9.999   .     S
Ce2370     N2515    10.007   .     S
Ce2370     Ce2384    10.013   .     S
S2371     Ce2372    9.988   .     S
S2371     Er2542    9.995   .     S
S2371     Ne2508    9.999   .     S
S2371     S2379    10.001   .     S
Ce2372     N2507    10.007   .     S
Ce2372     Ce2380    10.007   .     S
Ce2372     Ce2378    10.013   .     S
S2373     Ce2374    9.988   .     S
S2373     Er2548    9.995   .     S
S2373     Ne2478    9.999   .     S
S2373     S2377    10.001   .     S
Ce2374     N2477    10.007   .     S
Ce2374     Ce2378    10.007   .     S
Ce2374     Ce2382    10.013   .     S
S2375     Ce2376    9.988   .     S
S2375     Er2546    9.995   .     S
S2375     Ne2492    9.999   .     S
S2375     S2381    10.001   .     S
Ce2376     N2491    10.007   .     S
Ce2376     Ce2382    10.007   .     S
Ce2376     Ce2380    10.013   .     S
S2377     Ce2378    9.988   .     S
S2377     Er2541    9.995   .     S
S2377     Ne2510    9.999   .     S
Ce2378     N2509    10.007   .     S
S2379     Ce2380    9.988   .     S
S2379     Er2545    9.995   .     S
S2379     Ne2490    9.999   .     S
Ce2380     N2489    10.007   .     S
S2381     Ce2382    9.988   .     S
S2381     Er2547    9.995   .     S
S2381     Ne2480    9.999   .     S
Ce2382     N2479    10.007   .     S
S2383     Ce2384    9.988   .     S
S2383     Er2560    9.995   .     S
S2383     Ne2514    9.999   .     S
Ce2384     N2513    10.007   .     S
S2385     Ce2386    9.988   .     S
S2385     Er2555    9.995   .     S
S2385     Ne2472    9.999   .     S
Ce2386     N2471    10.007   .     S
Ce2386     Ce2390    10.013   .     S
S2387     Ce2388    9.988   .     S
S2387     Er2551    9.995   .     S
S2387     Ne2466    9.999   .     S
Ce2388     N2465    10.007   .     S
Ce2388     Ce2392    10.013   .     S
S2389     Ce2390    9.988   .     S
S2389     Er2556    9.995   .     S
S2389     Ne2474    9.999   .     S
Ce2390     N2473    10.007   .     S
S2391     Ce2392    9.988   .     S
S2391     Er2552    9.995   .     S
S2391     Ne2468    9.999   .     S
Ce2392     N2467    10.007   .     S
Be2393     He2394    9.991   .     S
Be2393     Be2453    10.001   .     S
Be2393     Be2396    10.013   .     S
He2394     C2395    9.993   .     S
He2394     He2397    10.004   .     S
C2395     B2535    9.997   .     S
C2395     C2455    10.007   .     S
C2395     C2398    10.007   .     S
Be2396     He2397    9.991   .     S
Be2396     Be2438    10.001   .     S
He2397     C2398    9.993   .     S
C2398     B2476    9.997   .     S
C2398     C2440    10.007   .     S
Be2399     He2400    9.991   .     S
Be2399     Be2450    10.001   .     S
Be2399     Be2402    10.013   .     S
He2400     C2401    9.993   .     S
He2400     He2403    10.004   .     S
C2401     B2529    9.997   .     S
C2401     C2404    10.007   .     S
C2401     C2452    10.007   .     S
Be2402     He2403    9.991   .     S
Be2402     Be2441    10.001   .     S
He2403     C2404    9.993   .     S
C2404     B2469    9.997   .     S
C2404     C2443    10.007   .     S
Be2405     He2406    9.991   .     S
Be2405     Be2444    10.001   .     S
Be2405     Be2408    10.013   .     S
He2406     C2407    9.993   .     S
He2406     He2409    10.004   .     S
C2407     B2524    9.997   .     S
C2407     C2410    10.007   .     S
C2407     C2446    10.007   .     S
Be2408     He2409    9.991   .     S
Be2408     Be2447    10.001   .     S
He2409     C2410    9.993   .     S
C2410     B2518    9.997   .     S
C2410     C2449    10.007   .     S
Be2411     He2412    9.991   .     S
Be2411     Be2462    10.001   .     S
Be2411     Be2435    10.013   .     S
He2412     C2413    9.993   .     S
He2412     He2436    10.004   .     S
C2413     B2505    9.997   .     S
C2413     C2464    10.007   .     S
C2413     C2437    10.007   .     S
Be2414     He2415    9.991   .     S
Be2414     Be2435    10.001   .     S
Be2414     Be2462    10.013   .     S
He2415     C2416    9.993   .     S
He2415     He2463    10.004   .     S
C2416     B2512    9.997   .     S
C2416     C2464    10.007   .     S
C2416     C2437    10.007   .     S
Be2417     He2418    9.991   .     S
Be2417     Be2456    10.001   .     S
Be2417     Be2429    10.013   .     S
Be2417     Li2952    10.016   .     S
He2418     C2419    9.993   .     S
He2418     H2951    10.001   .     S
He2418     He2430    10.004   .     S
C2419     B2487    9.997   .     S
C2419     C2458    10.007   .     S
C2419     C2431    10.007   .     S
Be2420     He2421    9.991   .     S
Be2420     Be2429    10.001   .     S
Be2420     Be2456    10.013   .     S
He2421     C2422    9.993   .     S
He2421     He2457    10.004   .     S
C2422     B2482    9.997   .     S
C2422     C2458    10.007   .     S
C2422     C2431    10.007   .     S
Be2423     He2424    9.991   .     S
Be2423     Be2459    10.001   .     S
Be2423     Be2432    10.013   .     S
He2424     C2425    9.993   .     S
He2424     He2433    10.004   .     S
C2425     B2500    9.997   .     S
C2425     C2434    10.007   .     S
C2425     C2461    10.007   .     S
Be2426     He2427    9.991   .     S
Be2426     Be2432    10.001   .     S
Be2426     Be2459    10.013   .     S
He2427     C2428    9.993   .     S
He2427     He2460    10.004   .     S
C2428     B2494    9.997   .     S
C2428     C2461    10.007   .     S
C2428     C2434    10.007   .     S
Be2429     He2430    9.991   .     S
Be2429     Li2976    10.016   .     S
He2430     C2431    9.993   .     S
He2430     H2975    10.001   .     S
C2431     B2481    9.997   .     S
Be2432     He2433    9.991   .     S
Be2432     Li2646    10.016   .     S
He2433     C2434    9.993   .     S
He2433     H2645    10.001   .     S
C2434     B2493    9.997   .     S
Be2435     He2436    9.991   .     S
He2436     C2437    9.993   .     S
C2437     B2511    9.997   .     S
Be2438     He2439    9.991   .     S
Be2438     Be2453    10.013   .     S
He2439     C2440    9.993   .     S
He2439     He2454    10.004   .     S
C2440     B2475    9.997   .     S
C2440     C2455    10.007   .     S
Be2441     He2442    9.991   .     S
Be2441     Be2450    10.013   .     S
He2442     C2443    9.993   .     S
He2442     He2451    10.004   .     S
C2443     B2470    9.997   .     S
C2443     C2452    10.007   .     S
Be2444     He2445    9.991   .     S
Be2444     Be2447    10.013   .     S
He2445     C2446    9.993   .     S
He2445     He2448    10.004   .     S
C2446     B2523    9.997   .     S
C2446     C2449    10.007   .     S
Be2447     He2448    9.991   .     S
He2448     C2449    9.993   .     S
C2449     B2517    9.997   .     S
Be2450     He2451    9.991   .     S
Be2450     Li2978    10.016   .     S
He2451     C2452    9.993   .     S
He2451     H2977    10.001   .     S
C2452     B2530    9.997   .     S
Be2453     He2454    9.991   .     S
He2454     C2455    9.993   .     S
C2455     B2536    9.997   .     S
Be2456     He2457    9.991   .     S
Be2456     Li2638    10.016   .     S
He2457     C2458    9.993   .     S
He2457     H2637    10.001   .     S
C2458     B2488    9.997   .     S
Be2459     He2460    9.991   .     S
He2460     C2461    9.993   .     S
C2461     B2499    9.997   .     S
Be2462     He2463    9.991   .     S
Be2462     Li2962    10.016   .     S
He2463     C2464    9.993   .     S
He2463     H2961    10.001   .     S
C2464     B2506    9.997   .     S
N2465     Ne2466    9.989   .     S
N2465     N2467    10.001   .     S
Ne2466     B2469    9.992   .     S
N2467     Ne2468    9.989   .     S
Ne2468     B2470    9.992   .     S
B2469     B2470    9.989   .     S
B2469     Er2551    9.993   .     S
B2470     Er2552    9.993   .     S
N2471     Ne2472    9.989   .     S
N2471     N2473    10.001   .     S
Ne2472     B2476    9.992   .     S
N2473     Ne2474    9.989   .     S
Ne2474     B2475    9.992   .     S
B2475     B2476    9.989   .     S
B2475     Er2556    9.993   .     S
B2476     Er2555    9.993   .     S
N2477     Ne2478    9.989   .     S
N2477     N2479    10.001   .     S
N2477     O2971    10.013   .     S
Ne2478     B2481    9.992   .     S
Ne2478     F2972    10.001   .     S
N2479     Ne2480    9.989   .     S
Ne2480     B2482    9.992   .     S
B2481     B2482    9.989   .     S
B2481     Er2548    9.993   .     S
B2482     Er2547    9.993   .     S
N2483     Ne2484    9.989   .     S
N2483     N2485    10.001   .     S
N2483     O2633    10.013   .     S
Ne2484     B2488    9.992   .     S
Ne2484     F2634    10.001   .     S
N2485     Ne2486    9.989   .     S
N2485     O2945    10.013   .     S
Ne2486     B2487    9.992   .     S
Ne2486     F2946    10.001   .     S
B2487     B2488    9.989   .     S
B2487     Er2539    9.993   .     S
B2488     Er2540    9.993   .     S
N2489     Ne2490    9.989   .     S
N2489     N2491    10.001   .     S
Ne2490     B2494    9.992   .     S
N2491     Ne2492    9.989   .     S
N2491     O2643    10.013   .     S
Ne2492     B2493    9.992   .     S
Ne2492     F2644    10.001   .     S
B2493     B2494    9.989   .     S
B2493     Er2546    9.993   .     S
B2494     Er2545    9.993   .     S
N2495     Ne2496    9.989   .     S
N2495     N2497    10.001   .     S
Ne2496     B2499    9.992   .     S
N2497     Ne2498    9.989   .     S
Ne2498     B2500    9.992   .     S
B2499     B2500    9.989   .     S
B2499     Er2544    9.993   .     S
B2500     Er2543    9.993   .     S
N2501     Ne2502    9.989   .     S
N2501     N2503    10.001   .     S
N2501     O2965    10.013   .     S
Ne2502     B2506    9.992   .     S
Ne2502     F2966    10.001   .     S
N2503     Ne2504    9.989   .     S
Ne2504     B2505    9.992   .     S
B2505     B2506    9.989   .     S
B2505     Er2537    9.993   .     S
B2506     Er2538    9.993   .     S
N2507     Ne2508    9.989   .     S
N2507     N2509    10.001   .     S
Ne2508     B2511    9.992   .     S
N2509     Ne2510    9.989   .     S
Ne2510     B2512    9.992   .     S
B2511     B2512    9.989   .     S
B2511     Er2542    9.993   .     S
B2512     Er2541    9.993   .     S
N2513     Ne2514    9.989   .     S
N2513     N2515    10.001   .     S
Ne2514     B2518    9.992   .     S
N2515     Ne2516    9.989   .     S
Ne2516     B2517    9.992   .     S
B2517     B2518    9.989   .     S
B2517     Er2559    9.993   .     S
B2518     Er2560    9.993   .     S
N2519     Ne2520    9.989   .     S
N2519     N2521    10.001   .     S
Ne2520     B2524    9.992   .     S
N2521     Ne2522    9.989   .     S
Ne2522     B2523    9.992   .     S
B2523     B2524    9.989   .     S
B2523     Er2554    9.993   .     S
B2524     Er2553    9.993   .     S
N2525     Ne2526    9.989   .     S
N2525     N2527    10.001   .     S
Ne2526     B2529    9.992   .     S
N2527     Ne2528    9.989   .     S
N2527     O2983    10.013   .     S
Ne2528     B2530    9.992   .     S
Ne2528     F2984    10.001   .     S
B2529     B2530    9.989   .     S
B2529     Er2557    9.993   .     S
B2530     Er2558    9.993   .     S
N2531     Ne2532    9.989   .     S
N2531     N2533    10.001   .     S
Ne2532     B2535    9.992   .     S
N2533     Ne2534    9.989   .     S
Ne2534     B2536    9.992   .     S
B2535     B2536    9.989   .     S
B2535     Er2549    9.993   .     S
B2536     Er2550    9.993   .     S
Er2537     Er2538    9.986   .     S
Er2537     Ti2585    9.992   .     S
Er2538     Ti2586    9.992   .     S
Er2539     Er2540    9.986   .     S
Er2539     Ti2577    9.992   .     S
Er2540     Ti2578    9.992   .     S
Er2541     Er2542    9.986   .     S
Er2541     Ti2588    9.992   .     S
Er2542     Ti2587    9.992   .     S
Er2543     Er2544    9.986   .     S
Er2543     Ti2597    9.992   .     S
Er2544     Ti2598    9.992   .     S
Er2545     Er2546    9.986   .     S
Er2545     Ti2596    9.992   .     S
Er2546     Ti2595    9.992   .     S
Er2547     Er2548    9.986   .     S
Er2547     Ti2599    9.992   .     S
Er2548     Ti2600    9.992   .     S
Er2549     Er2550    9.986   .     S
Er2549     Ti2570    9.992   .     S
Er2550     Ti2569    9.992   .     S
Er2551     Er2552    9.986   .     S
Er2551     Ti2575    9.992   .     S
Er2552     Ti2576    9.992   .     S
Er2553     Er2554    9.986   .     S
Er2553     Ti2567    9.992   .     S
Er2554     Ti2568    9.992   .     S
Er2555     Er2556    9.986   .     S
Er2555     Ti2601    9.992   .     S
Er2556     Ti2602    9.992   .     S
Er2557     Er2558    9.986   .     S
Er2557     Ti2571    9.992   .     S
Er2558     Ti2572    9.992   .     S
Er2559     Er2560    9.986   .     S
Er2559     Ti2573    9.992   .     S
Er2560     Ti2574    9.992   .     S
V2561     V2562    9.986   .     S
V2561     Ti2601    9.993   .     S
V2561     V2563    9.992   .     S
V2561     V2605    9.998   .     S
V2562     Ti2571    9.993   .     S
V2562     V2565    9.992   .     S
V2562     V2580    9.998   .     S
V2563     V2564    9.986   .     S
V2563     Ti2570    9.993   .     S
V2563     V2607    9.998   .     S
V2564     Ti2574    9.993   .     S
V2564     V2566    9.992   .     S
V2564     V2590    9.998   .     S
V2565     V2566    9.986   .     S
V2565     Ti2575    9.993   .     S
V2565     V2584    9.998   .     S
V2566     Ti2567    9.993   .     S
V2566     V2592    9.998   .     S
Ti2567     Ti2568    9.989   .     S
Ti2567     Ti2575    9.995   .     S
Ti2568     V2592    9.993   .     S
Ti2568     Ti2585    9.995   .     S
Ti2569     Ti2570    9.989   .     S
Ti2569     V2607    9.993   .     S
Ti2569     Ti2597    9.995   .     S
Ti2570     Ti2574    9.995   .     S
Ti2571     Ti2572    9.989   .     S
Ti2571     Ti2601    9.995   .     S
Ti2572     V2580    9.993   .     S
Ti2572     Ti2577    9.995   .     S
Ti2573     Ti2574    9.989   .     S
Ti2573     V2590    9.993   .     S
Ti2573     Ti2598    9.995   .     S
Ti2575     Ti2576    9.989   .     S
Ti2576     V2584    9.993   .     S
Ti2576     Ti2586    9.995   .     S
Ti2577     Ti2578    9.989   .     S
Ti2577     V2579    9.993   .     S
Ti2578     V2606    9.993   .     S
Ti2578     Ti2602    9.995   .     S
V2579     V2580    9.986   .     S
V2579     V2582    9.992   .     S
V2579     V2606    9.998   .     S
V2580     V2584    9.992   .     S
V2581     V2582    9.986   .     S
V2581     Ti2588    9.993   .     S
V2581     V2583    9.992   .     S
V2581     V2593    9.998   .     S
V2582     Ti2600    9.993   .     S
V2582     V2604    9.998   .     S
V2583     V2584    9.986   .     S
V2583     Ti2586    9.993   .     S
V2583     V2591    9.998   .     S
Ti2585     Ti2586    9.989   .     S
Ti2585     V2591    9.993   .     S
Ti2587     Ti2588    9.989   .     S
Ti2587     V2593    9.993   .     S
Ti2587     Ti2596    9.995   .     S
Ti2588     Ti2600    9.995   .     S
V2589     V2590    9.986   .     S
V2589     Ti2598    9.993   .     S
V2589     V2594    9.992   .     S
V2589     V2608    9.998   .     S
V2590     V2592    9.992   .     S
V2591     V2592    9.986   .     S
V2591     V2593    9.992   .     S
V2593     V2594    9.986   .     S
V2594     Ti2596    9.993   .     S
V2594     V2603    9.998   .     S
Ti2595     Ti2596    9.989   .     S
Ti2595     V2603    9.993   .     S
Ti2595     Ti2599    9.995   .     S
Ti2597     Ti2598    9.989   .     S
Ti2597     V2608    9.993   .     S
Ti2599     Ti2600    9.989   .     S
Ti2599     V2604    9.993   .     S
Ti2601     Ti2602    9.989   .     S
Ti2602     V2605    9.993   .     S
V2603     V2604    9.986   .     S
V2603     V2608    9.992   .     S
V2604     V2606    9.992   .     S
V2605     V2606    9.986   .     S
V2605     V2607    9.992   .     S
V2607     V2608    9.986   .     S
O2609     F2610    9.992   1_655     S
O2609     Na63    10.006   1_655     S
O2609     Li2612    10.007   .     S
O2609     N2847    10.013   1_655     S
F2610     O2609    9.992   1_455     S
F2610     H2611    9.995   1_455     S
F2610     H2615    9.998   .     S
F2610     Ne2848    10.001   .     S
H2611     Li2612    9.991   .     S
H2611     F2610    9.995   1_655     S
H2611     F2614    9.998   .     S
O2613     Na73    10.006   1_455     S
O2613     F2614    9.992   1_455     S
O2613     Li2616    10.007   .     S
O2613     N1903    10.013   1_455     S
F2614     O2613    9.992   1_655     S
F2614     H2615    9.995   1_655     S
H2615     Li2616    9.991   .     S
H2615     F2614    9.995   1_455     S
H2615     He2735    10.001   .     S
Li2616     Be2734    10.016   .     S
H2617     Li2618    9.991   .     S
H2617     F2620    9.995   .     S
H2617     F2624    9.998   .     S
Li2618     O2619    10.007   .     S
O2619     F2620    9.992   .     S
O2619     N2853    10.013   .     S
F2620     H2621    9.998   .     S
F2620     Ne2854    10.001   .     S
H2621     Li2622    9.991   .     S
H2621     F2624    9.995   .     S
H2621     He2717    10.001   .     S
Li2622     O2623    10.007   .     S
Li2622     Be2716    10.016   .     S
O2623     F2624    9.992   .     S
O2625     F2626    9.992   1_565     S
O2625     Na41    10.006   1_565     S
O2625     Li2628    10.007   .     S
O2625     N2845    10.013   1_565     S
F2626     O2625    9.992   1_545     S
F2626     H2627    9.995   1_545     S
F2626     H2631    9.998   .     S
F2626     Ne2846    10.001   .     S
H2627     Li2628    9.991   .     S
H2627     F2626    9.995   1_565     S
H2627     F2630    9.998   .     S
O2629     Na275    10.006   1_545     S
O2629     F2630    9.992   1_545     S
O2629     Li2632    10.007   .     S
O2629     N2185    10.013   1_545     S
F2630     O2629    9.992   1_565     S
F2630     H2631    9.995   1_565     S
H2631     Li2632    9.991   .     S
H2631     F2630    9.995   1_545     S
H2631     He2777    10.001   .     S
Li2632     Be2776    10.016   .     S
O2633     F2634    9.992   .     S
O2633     Li2636    10.007   .     S
F2634     H2635    9.995   .     S
F2634     H2637    9.998   .     S
H2635     Li2636    9.991   .     S
H2635     F2640    9.998   .     S
H2635     He2762    10.001   .     S
Li2636     Be2761    10.016   .     S
H2637     Li2638    9.991   .     S
H2637     F2640    9.995   .     S
Li2638     O2639    10.007   .     S
O2639     F2640    9.992   .     S
O2639     N2809    10.013   .     S
F2640     Ne2810    10.001   .     S
H2641     Li2642    9.991   .     S
H2641     F2644    9.995   .     S
H2641     F2648    9.998   .     S
H2641     He2720    10.001   .     S
Li2642     O2643    10.007   .     S
Li2642     Be2719    10.016   .     S
O2643     F2644    9.992   .     S
F2644     H2645    9.998   .     S
H2645     Li2646    9.991   .     S
H2645     F2648    9.995   .     S
Li2646     O2647    10.007   .     S
O2647     F2648    9.992   .     S
O2647     N2799    10.013   .     S
F2648     Ne2800    10.001   .     S
O2649     F2650    9.992   .     S
O2649     Li2652    10.007   .     S
F2650     H2651    9.995   .     S
F2650     H2655    9.998   .     S
H2651     Li2652    9.991   .     S
H2651     F2654    9.998   .     S
H2651     He2747    10.001   .     S
Li2652     Be2746    10.016   .     S
O2653     F2654    9.992   .     S
O2653     Li2656    10.007   .     S
O2653     N2791    10.013   .     S
F2654     H2655    9.995   .     S
F2654     Ne2792    10.001   .     S
H2655     Li2656    9.991   .     S
O2657     F2658    9.992   .     S
O2657     Li2660    10.007   .     S
O2657     N2839    10.013   .     S
F2658     H2659    9.995   .     S
F2658     H2661    9.998   .     S
F2658     Ne2840    10.001   .     S
H2659     Li2660    9.991   .     S
H2659     F2664    9.998   .     S
H2661     Li2662    9.991   .     S
H2661     F2664    9.995   .     S
H2661     He2765    10.001   .     S
Li2662     O2663    10.007   .     S
Li2662     Be2764    10.016   .     S
O2663     F2664    9.992   .     S
S2665     Ce2666    9.988   1_545     S
S2665     Er2870    9.995   .     S
S2665     Ne2830    9.999   .     S
S2665     S2669    10.001   1_545     S
Ce2666     S2665    9.988   1_565     S
Ce2666     N2829    10.007   1_565     S
Ce2666     Ce2670    10.007   .     S
Ce2666     Ce2692    10.013   1_565     S
S2667     Ce2668    9.988   1_455     S
S2667     Er2858    9.995   .     S
S2667     Ne2824    9.999   .     S
S2667     S2709    10.001   1_455     S
Ce2668     S2667    9.988   1_655     S
Ce2668     N2823    10.007   1_655     S
Ce2668     Ce2710    10.007   .     S
Ce2668     Ce2678    10.013   1_655     S
S2669     Ce2670    9.988   .     S
S2669     Er2878    9.995   .     S
S2669     Ne2806    9.999   .     S
S2669     S2665    10.001   1_565     S
Ce2670     N2805    10.007   .     S
Ce2670     Ce2684    10.013   .     S
S2671     Ce2672    9.988   .     S
S2671     Er2880    9.995   .     S
S2671     Ne2810    9.999   .     S
S2671     S2677    10.001   .     S
Ce2672     N2809    10.007   .     S
Ce2672     Ce2678    10.007   .     S
Ce2672     Ce2706    10.013   1_455     S
S2673     Ce2674    9.988   .     S
S2673     Er2874    9.995   .     S
S2673     Ne2834    9.999   .     S
S2673     S2687    10.001   .     S
Ce2674     N2833    10.007   .     S
Ce2674     Ce2688    10.007   .     S
Ce2674     Ce2694    10.013   .     S
S2675     Ce2676    9.988   .     S
S2675     Er2872    9.995   .     S
S2675     Ne2840    9.999   .     S
S2675     S2681    10.001   .     S
Ce2676     N2839    10.007   .     S
Ce2676     Ce2682    10.007   .     S
Ce2676     Ce2690    10.013   .     S
S2677     Ce2678    9.988   .     S
S2677     Er2857    9.995   .     S
S2677     Ne2822    9.999   .     S
Ce2678     N2821    10.007   .     S
Ce2678     Ce2668    10.013   1_455     S
S2679     Ce2680    9.988   1_455     S
S2679     Er2866    9.995   .     S
S2679     Ne2848    9.999   .     S
S2679     S2699    10.001   1_455     S
Ce2680     S2679    9.988   1_655     S
Ce2680     N2847    10.007   1_655     S
Ce2680     Ce2700    10.007   .     S
Ce2680     Ce2708    10.013   1_645     S
S2681     Ce2682    9.988   .     S
S2681     Er2860    9.995   .     S
S2681     Ne2854    9.999   .     S
Ce2682     N2853    10.007   .     S
Ce2682     Ce2688    10.013   .     S
S2683     Ce2684    9.988   .     S
S2683     Er2877    9.995   .     S
S2683     Ne2804    9.999   .     S
S2683     S2711    10.001   1_565     S
Ce2684     N2803    10.007   .     S
Ce2684     Ce2712    10.007   .     S
S2685     Ce2686    9.988   .     S
S2685     Er2867    9.995   .     S
S2685     Ne2816    9.999   .     S
S2685     S2707    10.001   1_565     S
Ce2686     N2815    10.007   .     S
Ce2686     Ce2708    10.007   .     S
Ce2686     Ce2704    10.013   1_455     S
S2687     Ce2688    9.988   .     S
S2687     Er2859    9.995   .     S
S2687     Ne2852    9.999   .     S
Ce2688     N2851    10.007   .     S
S2689     Ce2690    9.988   .     S
S2689     Er2871    9.995   .     S
S2689     Ne2842    9.999   .     S
S2689     S2693    10.001   .     S
Ce2690     N2841    10.007   .     S
Ce2690     Ce2694    10.007   .     S
S2691     Ce2692    9.988   .     S
S2691     Er2869    9.995   .     S
S2691     Ne2828    9.999   .     S
S2691     S2701    10.001   .     S
Ce2692     N2827    10.007   .     S
Ce2692     Ce2702    10.007   .     S
Ce2692     Ce2666    10.013   1_545     S
S2693     Ce2694    9.988   .     S
S2693     Er2873    9.995   .     S
S2693     Ne2836    9.999   .     S
Ce2694     N2835    10.007   .     S
S2695     Ce2696    9.988   1_545     S
S2695     Er2876    9.995   .     S
S2695     Ne2794    9.999   .     S
S2695     S2703    10.001   1_645     S
Ce2696     S2695    9.988   1_565     S
Ce2696     N2793    10.007   1_565     S
Ce2696     Ce2704    10.007   .     S
Ce2696     Ce2700    10.013   1_565     S
S2697     Ce2698    9.988   .     S
S2697     Er2861    9.995   .     S
S2697     Ne2788    9.999   .     S
S2697     S2705    10.001   1_655     S
Ce2698     N2787    10.007   .     S
Ce2698     Ce2706    10.007   .     S
Ce2698     Ce2710    10.013   .     S
S2699     Ce2700    9.988   .     S
S2699     Er2875    9.995   .     S
S2699     Ne2792    9.999   .     S
S2699     S2679    10.001   1_655     S
Ce2700     N2791    10.007   .     S
Ce2700     Ce2696    10.013   1_545     S
S2701     Ce2702    9.988   .     S
S2701     Er2863    9.995   .     S
S2701     Ne2800    9.999   .     S
Ce2702     N2799    10.007   .     S
Ce2702     Ce2712    10.013   1_545     S
S2703     Ce2704    9.988   1_455     S
S2703     Er2868    9.995   .     S
S2703     Ne2818    9.999   .     S
S2703     S2695    10.001   1_465     S
Ce2704     S2703    9.988   1_655     S
Ce2704     N2817    10.007   1_655     S
Ce2704     Ce2686    10.013   1_655     S
S2705     Ce2706    9.988   1_455     S
S2705     Er2879    9.995   .     S
S2705     Ne2812    9.999   .     S
S2705     S2697    10.001   1_455     S
Ce2706     S2705    9.988   1_655     S
Ce2706     N2811    10.007   1_655     S
Ce2706     Ce2672    10.013   1_655     S
S2707     Ce2708    9.988   1_545     S
S2707     Er2865    9.995   .     S
S2707     Ne2846    9.999   .     S
S2707     S2685    10.001   1_545     S
Ce2708     S2707    9.988   1_565     S
Ce2708     N2845    10.007   1_565     S
Ce2708     Ce2680    10.013   1_465     S
S2709     Ce2710    9.988   .     S
S2709     Er2862    9.995   .     S
S2709     Ne2786    9.999   .     S
S2709     S2667    10.001   1_655     S
Ce2710     N2785    10.007   .     S
S2711     Ce2712    9.988   1_545     S
S2711     Er2864    9.995   .     S
S2711     Ne2798    9.999   .     S
S2711     S2683    10.001   1_545     S
Ce2712     S2711    9.988   1_565     S
Ce2712     N2797    10.007   1_565     S
Ce2712     Ce2702    10.013   1_565     S
Be2713     He2714    9.991   .     S
Be2713     Be2764    10.001   .     S
Be2713     Be2740    10.013   .     S
He2714     C2715    9.993   .     S
He2714     He2741    10.004   .     S
C2715     B2843    9.997   .     S
C2715     C2742    10.007   .     S
C2715     C2766    10.007   .     S
Be2716     He2717    9.991   .     S
Be2716     Be2722    10.001   .     S
Be2716     Be2776    10.013   .     S
He2717     C2718    9.993   .     S
He2717     He2777    10.004   .     S
C2718     B2856    9.997   .     S
C2718     C2778    10.007   .     S
C2718     C2724    10.007   .     S
Be2719     He2720    9.991   .     S
Be2719     Be2767    10.001   .     S
Be2719     Be2731    10.013   .     S
He2720     C2721    9.993   .     S
He2720     He2732    10.004   .     S
C2721     B2802    9.997   .     S
C2721     C2733    10.007   .     S
C2721     C2769    10.007   .     S
Be2722     He2723    9.991   .     S
Be2722     Be2734    10.013   .     S
He2723     C2724    9.993   .     S
He2723     He2735    10.004   .     S
C2724     B2855    9.997   .     S
C2724     C2736    10.007   .     S
Be2725     He2726    9.991   .     S
Be2725     Be2746    10.001   .     S
Be2725     Be2779    10.013   .     S
He2726     C2727    9.993   .     S
He2726     He2780    10.004   .     S
C2727     B2795    9.997   .     S
C2727     C2781    10.007   .     S
C2727     C2748    10.007   .     S
Be2728     He2729    9.991   .     S
Be2728     Be2749    10.001   .     S
Be2728     Be2782    10.013   .     S
He2729     C2730    9.993   .     S
He2729     He2783    10.004   .     S
C2730     B2819    9.997   .     S
C2730     C2784    10.007   .     S
C2730     C2751    10.007   .     S
Be2731     He2732    9.991   .     S
Be2731     Be2770    10.001   .     S
He2732     C2733    9.993   .     S
C2733     B2825    9.997   .     S
C2733     C2772    10.007   .     S
Be2734     He2735    9.991   .     S
Be2734     Be2776    10.001   .     S
He2735     C2736    9.993   .     S
C2736     B2850    9.997   .     S
C2736     C2778    10.007   .     S
Be2737     He2738    9.991   .     S
Be2737     Be2758    10.001   .     S
Be2737     Be2773    10.013   .     S
He2738     C2739    9.993   .     S
He2738     He2774    10.004   .     S
C2739     B2837    9.997   .     S
C2739     C2760    10.007   .     S
C2739     C2775    10.007   .     S
Be2740     He2741    9.991   .     S
Be2740     Be2743    10.001   .     S
He2741     C2742    9.993   .     S
C2742     B2831    9.997   .     S
C2742     C2745    10.007   .     S
Be2743     He2744    9.991   .     S
Be2743     Be2764    10.013   .     S
He2744     C2745    9.993   .     S
He2744     He2765    10.004   .     S
C2745     B2832    9.997   .     S
C2745     C2766    10.007   .     S
Be2746     He2747    9.991   .     S
Be2746     Be2752    10.013   .     S
He2747     C2748    9.993   .     S
He2747     He2753    10.004   .     S
C2748     B2796    9.997   .     S
C2748     C2754    10.007   .     S
Be2749     He2750    9.991   .     S
Be2749     Be2755    10.013   .     S
He2750     C2751    9.993   .     S
He2750     He2756    10.004   .     S
C2751     B2820    9.997   .     S
C2751     C2757    10.007   .     S
Be2752     He2753    9.991   .     S
Be2752     Be2779    10.001   .     S
He2753     C2754    9.993   .     S
C2754     B2790    9.997   .     S
C2754     C2781    10.007   .     S
Be2755     He2756    9.991   .     S
Be2755     Be2782    10.001   .     S
He2756     C2757    9.993   .     S
C2757     B2808    9.997   .     S
C2757     C2784    10.007   .     S
Be2758     He2759    9.991   .     S
Be2758     Be2761    10.013   .     S
He2759     C2760    9.993   .     S
He2759     He2762    10.004   .     S
C2760     B2838    9.997   .     S
C2760     C2763    10.007   .     S
Be2761     He2762    9.991   .     S
Be2761     Be2773    10.001   .     S
He2762     C2763    9.993   .     S
C2763     B2813    9.997   .     S
C2763     C2775    10.007   .     S
Be2764     He2765    9.991   .     S
He2765     C2766    9.993   .     S
C2766     B2844    9.997   .     S
Be2767     He2768    9.991   .     S
Be2767     Be2770    10.013   .     S
He2768     C2769    9.993   .     S
He2768     He2771    10.004   .     S
C2769     B2801    9.997   .     S
C2769     C2772    10.007   .     S
Be2770     He2771    9.991   .     S
He2771     C2772    9.993   .     S
C2772     B2826    9.997   .     S
Be2773     He2774    9.991   .     S
He2774     C2775    9.993   .     S
C2775     B2814    9.997   .     S
Be2776     He2777    9.991   .     S
He2777     C2778    9.993   .     S
C2778     B2849    9.997   .     S
Be2779     He2780    9.991   .     S
He2780     C2781    9.993   .     S
C2781     B2789    9.997   .     S
Be2782     He2783    9.991   .     S
He2783     C2784    9.993   .     S
C2784     B2807    9.997   .     S
N2785     Ne2786    9.989   .     S
N2785     N2787    10.001   .     S
Ne2786     B2789    9.992   .     S
N2787     Ne2788    9.989   .     S
Ne2788     B2790    9.992   .     S
B2789     B2790    9.989   .     S
B2789     Er2862    9.993   .     S
B2790     Er2861    9.993   .     S
N2791     Ne2792    9.989   .     S
N2791     N2793    10.001   .     S
Ne2792     B2796    9.992   .     S
N2793     Ne2794    9.989   .     S
N2793     Ce2696    10.007   1_545     S
N2793     O601    10.013   1_545     S
Ne2794     B2795    9.992   .     S
B2795     B2796    9.989   .     S
B2795     Er2876    9.993   .     S
B2796     Er2875    9.993   .     S
N2797     Ne2798    9.989   .     S
N2797     N2799    10.001   .     S
N2797     Ce2712    10.007   1_545     S
N2797     O1697    10.013   1_545     S
Ne2798     B2801    9.992   .     S
N2799     Ne2800    9.989   .     S
Ne2800     B2802    9.992   .     S
B2801     B2802    9.989   .     S
B2801     Er2864    9.993   .     S
B2802     Er2863    9.993   .     S
N2803     Ne2804    9.989   .     S
N2803     N2805    10.001   .     S
Ne2804     B2807    9.992   .     S
N2805     Ne2806    9.989   .     S
Ne2806     B2808    9.992   .     S
B2807     B2808    9.989   .     S
B2807     Er2877    9.993   .     S
B2808     Er2878    9.993   .     S
N2809     Ne2810    9.989   .     S
N2809     N2811    10.001   .     S
Ne2810     B2813    9.992   .     S
N2811     Ne2812    9.989   .     S
N2811     Ce2706    10.007   1_455     S
N2811     O421    10.013   1_455     S
Ne2812     B2814    9.992   .     S
B2813     B2814    9.989   .     S
B2813     Er2880    9.993   .     S
B2814     Er2879    9.993   .     S
N2815     Ne2816    9.989   .     S
N2815     N2817    10.001   .     S
Ne2816     B2820    9.992   .     S
N2817     Ne2818    9.989   .     S
N2817     Ce2704    10.007   1_455     S
N2817     O577    10.013   1_455     S
Ne2818     B2819    9.992   .     S
B2819     B2820    9.989   .     S
B2819     Er2868    9.993   .     S
B2820     Er2867    9.993   .     S
N2821     Ne2822    9.989   .     S
N2821     N2823    10.001   .     S
Ne2822     B2825    9.992   .     S
N2823     Ne2824    9.989   .     S
N2823     Ce2668    10.007   1_455     S
N2823     O1713    10.013   1_455     S
Ne2824     B2826    9.992   .     S
B2825     B2826    9.989   .     S
B2825     Er2857    9.993   .     S
B2826     Er2858    9.993   .     S
N2827     Ne2828    9.989   .     S
N2827     N2829    10.001   .     S
Ne2828     B2831    9.992   .     S
N2829     Ne2830    9.989   .     S
N2829     Ce2666    10.007   1_545     S
N2829     O639    10.013   1_545     S
Ne2830     B2832    9.992   .     S
B2831     B2832    9.989   .     S
B2831     Er2869    9.993   .     S
B2832     Er2870    9.993   .     S
N2833     Ne2834    9.989   .     S
N2833     N2835    10.001   .     S
Ne2834     B2837    9.992   .     S
N2835     Ne2836    9.989   .     S
Ne2836     B2838    9.992   .     S
B2837     B2838    9.989   .     S
B2837     Er2874    9.993   .     S
B2838     Er2873    9.993   .     S
N2839     Ne2840    9.989   .     S
N2839     N2841    10.001   .     S
Ne2840     B2844    9.992   .     S
N2841     Ne2842    9.989   .     S
Ne2842     B2843    9.992   .     S
B2843     B2844    9.989   .     S
B2843     Er2871    9.993   .     S
B2844     Er2872    9.993   .     S
N2845     Ne2846    9.989   .     S
N2845     N2847    10.001   .     S
N2845     Ce2708    10.007   1_545     S
N2845     O2625    10.013   1_545     S
Ne2846     B2849    9.992   .     S
N2847     Ne2848    9.989   .     S
N2847     Ce2680    10.007   1_455     S
N2847     O2609    10.013   1_455     S
Ne2848     B2850    9.992   .     S
B2849     B2850    9.989   .     S
B2849     Er2865    9.993   .     S
B2850     Er2866    9.993   .     S
N2851     Ne2852    9.989   .     S
N2851     N2853    10.001   .     S
Ne2852     B2855    9.992   .     S
N2853     Ne2854    9.989   .     S
Ne2854     B2856    9.992   .     S
B2855     B2856    9.989   .     S
B2855     Er2859    9.993   .     S
B2856     Er2860    9.993   .     S
Er2857     Er2858    9.986   .     S
Er2857     Ti2883    9.992   .     S
Er2858     Ti2884    9.992   .     S
Er2859     Er2860    9.986   .     S
Er2859     Ti2919    9.992   .     S
Er2860     Ti2920    9.992   .     S
Er2861     Er2862    9.986   .     S
Er2861     Ti2893    9.992   1_655     S
Er2862     Ti2894    9.992   1_655     S
Er2863     Er2864    9.986   .     S
Er2863     Ti2897    9.992   .     S
Er2864     Ti2898    9.992   .     S
Er2865     Er2866    9.986   .     S
Er2865     Ti2906    9.992   .     S
Er2866     Ti2905    9.992   .     S
Er2867     Er2868    9.986   .     S
Er2867     Ti2895    9.992   1_565     S
Er2868     Ti2896    9.992   1_565     S
Er2869     Er2870    9.986   .     S
Er2869     Ti2881    9.992   .     S
Er2870     Ti2882    9.992   .     S
Er2871     Er2872    9.986   .     S
Er2871     Ti2889    9.992   .     S
Er2872     Ti2890    9.992   .     S
Er2873     Er2874    9.986   .     S
Er2873     Ti2891    9.992   .     S
Er2874     Ti2892    9.992   .     S
Er2875     Er2876    9.986   .     S
Er2875     Ti2885    9.992   1_655     S
Er2876     Ti2886    9.992   1_655     S
Er2877     Er2878    9.986   .     S
Er2877     Ti2887    9.992   1_565     S
Er2878     Ti2888    9.992   1_565     S
Er2879     Er2880    9.986   .     S
Er2879     Ti2921    9.992   .     S
Er2880     Ti2922    9.992   .     S
Ti2881     Ti2882    9.989   .     S
Ti2881     V2914    9.993   .     S
Ti2881     Ti2897    9.995   .     S
Ti2882     V2907    9.993   .     S
Ti2882     Ti2888    9.995   .     S
Ti2883     Ti2884    9.989   .     S
Ti2883     V2916    9.993   .     S
Ti2883     Ti2922    9.995   .     S
Ti2884     V2904    9.993   .     S
Ti2884     Ti2894    9.995   .     S
Ti2885     Er2875    9.992   1_455     S
Ti2885     Ti2886    9.989   .     S
Ti2885     V2924    9.993   .     S
Ti2885     Ti2905    9.995   .     S
Ti2886     Er2876    9.992   1_455     S
Ti2886     V2900    9.993   .     S
Ti2886     Ti2896    9.995   .     S
Ti2887     Er2877    9.992   1_545     S
Ti2887     Ti2888    9.989   .     S
Ti2887     V2901    9.993   .     S
Ti2887     Ti2898    9.995   .     S
Ti2888     Er2878    9.992   1_545     S
Ti2888     V2908    9.993   .     S
Ti2889     Ti2890    9.989   .     S
Ti2889     V2918    9.993   .     S
Ti2889     Ti2891    9.995   .     S
Ti2890     V2912    9.993   .     S
Ti2890     Ti2920    9.995   .     S
Ti2891     Ti2892    9.989   .     S
Ti2891     V2917    9.993   .     S
Ti2892     V2928    9.993   .     S
Ti2892     Ti2919    9.995   .     S
Ti2893     Er2861    9.992   1_455     S
Ti2893     Ti2894    9.989   .     S
Ti2893     V2925    9.993   .     S
Ti2893     Ti2921    9.995   .     S
Ti2894     Er2862    9.992   1_455     S
Ti2894     V2903    9.993   .     S
Ti2895     Er2867    9.992   1_545     S
Ti2895     Ti2896    9.989   .     S
Ti2895     V2909    9.993   .     S
Ti2895     Ti2906    9.995   .     S
Ti2896     Er2868    9.992   1_545     S
Ti2896     V2899    9.993   .     S
Ti2897     Ti2898    9.989   .     S
Ti2897     V2913    9.993   .     S
Ti2898     V2902    9.993   .     S
V2899     V2900    9.986   .     S
V2899     V2901    9.992   .     S
V2899     V2909    9.998   .     S
V2900     V2903    9.992   .     S
V2900     V2924    9.998   .     S
V2901     V2902    9.986   .     S
V2901     V2908    9.998   .     S
V2902     V2904    9.992   .     S
V2902     V2913    9.998   .     S
V2903     V2904    9.986   .     S
V2903     V2925    9.998   .     S
V2904     V2916    9.998   .     S
Ti2905     Ti2906    9.989   .     S
Ti2905     V2923    9.993   .     S
Ti2906     V2910    9.993   .     S
V2907     V2908    9.986   .     S
V2907     V2912    9.992   .     S
V2907     V2914    9.998   .     S
V2908     V2909    9.992   .     S
V2909     V2910    9.986   .     S
V2910     V2911    9.992   .     S
V2910     V2923    9.998   .     S
V2911     V2912    9.986   .     S
V2911     Ti2920    9.993   .     S
V2911     V2927    9.998   .     S
V2912     V2918    9.998   .     S
V2913     V2914    9.986   .     S
V2913     V2916    9.992   .     S
V2914     V2918    9.992   .     S
V2915     V2916    9.986   .     S
V2915     Ti2922    9.993   .     S
V2915     V2917    9.992   .     S
V2915     V2926    9.998   .     S
V2917     V2918    9.986   .     S
V2917     V2928    9.998   .     S
Ti2919     Ti2920    9.989   .     S
Ti2919     V2927    9.993   .     S
Ti2921     Ti2922    9.989   .     S
Ti2921     V2926    9.993   .     S
V2923     V2924    9.986   .     S
V2923     V2927    9.992   .     S
V2924     V2925    9.992   .     S
V2925     V2926    9.986   .     S
V2926     V2928    9.992   .     S
V2927     V2928    9.986   .     S
O2929     F2930    9.992   1_655     S
O2929     Na39    10.006   1_655     S
O2929     Li2932    10.007   .     S
O2929     N3181    10.013   1_655     S
F2930     O2929    9.992   1_455     S
F2930     H2931    9.995   1_455     S
F2930     H2935    9.998   .     S
F2930     Ne3182    10.001   .     S
H2931     Li2932    9.991   .     S
H2931     F2930    9.995   1_655     S
H2931     F2934    9.998   .     S
O2933     Na69    10.006   1_455     S
O2933     F2934    9.992   1_455     S
O2933     Li2936    10.007   .     S
O2933     N1147    10.013   1_455     S
F2934     O2933    9.992   1_655     S
F2934     H2935    9.995   1_655     S
H2935     Li2936    9.991   .     S
H2935     F2934    9.995   1_455     S
H2935     He3071    10.001   .     S
Li2936     Be3070    10.016   .     S
O2937     F2938    9.992   1_556     S
O2937     Na61    10.006   1_556     S
O2937     Li2940    10.007   .     S
O2937     N3183    10.013   1_556     S
F2938     O2937    9.992   1_554     S
F2938     H2939    9.995   1_554     S
F2938     H2943    9.998   .     S
F2938     Ne3184    10.001   .     S
H2939     Li2940    9.991   .     S
H2939     F2938    9.995   1_556     S
H2939     F2942    9.998   .     S
O2941     Na71    10.006   1_554     S
O2941     F2942    9.992   1_554     S
O2941     Li2944    10.007   .     S
O2941     N2183    10.013   1_554     S
F2942     O2941    9.992   1_556     S
F2942     H2943    9.995   1_556     S
H2943     Li2944    9.991   .     S
H2943     F2942    9.995   1_554     S
H2943     He3074    10.001   .     S
Li2944     Be3073    10.016   .     S
O2945     F2946    9.992   .     S
O2945     Li2948    10.007   .     S
F2946     H2947    9.995   .     S
F2946     H2951    9.998   .     S
H2947     Li2948    9.991   .     S
H2947     F2950    9.998   .     S
H2947     He3077    10.001   .     S
Li2948     Be3076    10.016   .     S
O2949     F2950    9.992   .     S
O2949     Li2952    10.007   .     S
O2949     N3163    10.013   .     S
F2950     H2951    9.995   .     S
F2950     Ne3164    10.001   .     S
H2951     Li2952    9.991   .     S
H2953     Li2954    9.991   .     S
H2953     F2956    9.995   .     S
H2953     F2960    9.998   .     S
Li2954     O2955    10.007   .     S
O2955     F2956    9.992   .     S
O2955     N3187    10.013   .     S
F2956     H2957    9.998   .     S
F2956     Ne3188    10.001   .     S
H2957     Li2958    9.991   .     S
H2957     F2960    9.995   .     S
H2957     He3056    10.001   .     S
Li2958     O2959    10.007   .     S
Li2958     Be3055    10.016   .     S
O2959     F2960    9.992   .     S
H2961     Li2962    9.991   .     S
H2961     F2964    9.995   .     S
H2961     F2966    9.998   .     S
Li2962     O2963    10.007   .     S
O2963     F2964    9.992   .     S
O2963     N3157    10.013   .     S
F2964     H2967    9.998   .     S
F2964     Ne3158    10.001   .     S
O2965     F2966    9.992   .     S
O2965     Li2968    10.007   .     S
F2966     H2967    9.995   .     S
H2967     Li2968    9.991   .     S
H2967     He3119    10.001   .     S
Li2968     Be3118    10.016   .     S
H2969     Li2970    9.991   .     S
H2969     F2972    9.995   .     S
H2969     F2974    9.998   .     S
H2969     He3059    10.001   .     S
Li2970     O2971    10.007   .     S
Li2970     Be3058    10.016   .     S
O2971     F2972    9.992   .     S
F2972     H2975    9.998   .     S
O2973     F2974    9.992   .     S
O2973     Li2976    10.007   .     S
O2973     N3129    10.013   .     S
F2974     H2975    9.995   .     S
F2974     Ne3130    10.001   .     S
H2975     Li2976    9.991   .     S
H2977     Li2978    9.991   .     S
H2977     F2980    9.995   .     S
H2977     F2984    9.998   .     S
Li2978     O2979    10.007   .     S
O2979     F2980    9.992   .     S
O2979     N3177    10.013   .     S
F2980     H2981    9.998   .     S
F2980     Ne3178    10.001   .     S
H2981     Li2982    9.991   .     S
H2981     F2984    9.995   .     S
H2981     He3053    10.001   .     S
Li2982     O2983    10.007   .     S
Li2982     Be3052    10.016   .     S
O2983     F2984    9.992   .     S
O2985     F2986    9.992   .     S
O2985     Li2988    10.007   .     S
F2986     H2987    9.995   .     S
F2986     H2991    9.998   .     S
H2987     Li2988    9.991   .     S
H2987     F2990    9.998   .     S
H2987     He3050    10.001   .     S
Li2988     Be3049    10.016   .     S
O2989     F2990    9.992   .     S
O2989     Li2992    10.007   .     S
O2989     N3133    10.013   .     S
F2990     H2991    9.995   .     S
F2990     Ne3134    10.001   .     S
H2991     Li2992    9.991   .     S
O2993     F2994    9.992   .     S
O2993     Li2996    10.007   .     S
O2993     N3175    10.013   .     S
F2994     H2995    9.995   .     S
F2994     H2997    9.998   .     S
F2994     Ne3176    10.001   .     S
H2995     Li2996    9.991   .     S
H2995     F3000    9.998   .     S
H2997     Li2998    9.991   .     S
H2997     F3000    9.995   .     S
H2997     He3098    10.001   .     S
Li2998     O2999    10.007   .     S
Li2998     Be3097    10.016   .     S
O2999     F3000    9.992   .     S
S3001     Ce3002    9.988   1_455     S
S3001     Er3208    9.995   .     S
S3001     Ne3166    9.999   .     S
S3001     S3003    10.001   1_455     S
Ce3002     S3001    9.988   1_655     S
Ce3002     N3165    10.007   1_655     S
Ce3002     Ce3004    10.007   .     S
Ce3002     Ce3044    10.013   1_655     S
S3003     Ce3004    9.988   .     S
S3003     Er3200    9.995   .     S
S3003     Ne3154    9.999   .     S
S3003     S3001    10.001   1_655     S
Ce3004     N3153    10.007   .     S
Ce3004     Ce3008    10.013   .     S
S3005     Ce3006    9.988   1_554     S
S3005     Er3204    9.995   .     S
S3005     Ne3142    9.999   .     S
S3005     S3025    10.001   1_554     S
Ce3006     S3005    9.988   1_556     S
Ce3006     N3141    10.007   1_556     S
Ce3006     Ce3026    10.007   .     S
Ce3006     Ce3018    10.013   1_556     S
S3007     Ce3008    9.988   .     S
S3007     Er3199    9.995   .     S
S3007     Ne3152    9.999   .     S
S3007     S3041    10.001   1_655     S
Ce3008     N3151    10.007   .     S
Ce3008     Ce3042    10.007   .     S
S3009     Ce3010    9.988   .     S
S3009     Er3215    9.995   .     S
S3009     Ne3158    9.999   .     S
S3009     S3017    10.001   .     S
Ce3010     N3157    10.007   .     S
Ce3010     Ce3018    10.007   .     S
Ce3010     Ce3040    10.013   1_554     S
S3011     Ce3012    9.988   .     S
S3011     Er3212    9.995   .     S
S3011     Ne3176    9.999   .     S
S3011     S3019    10.001   .     S
Ce3012     N3175    10.007   .     S
Ce3012     Ce3020    10.007   .     S
Ce3012     Ce3028    10.013   .     S
S3013     Ce3014    9.988   .     S
S3013     Er3210    9.995   .     S
S3013     Ne3170    9.999   .     S
S3013     S3023    10.001   .     S
Ce3014     N3169    10.007   .     S
Ce3014     Ce3024    10.007   .     S
Ce3014     Ce3030    10.013   .     S
S3015     Ce3016    9.988   1_554     S
S3015     Er3198    9.995   .     S
S3015     Ne3184    9.999   .     S
S3015     S3033    10.001   1_554     S
Ce3016     S3015    9.988   1_556     S
Ce3016     N3183    10.007   1_556     S
Ce3016     Ce3034    10.007   .     S
Ce3016     Ce3048    10.013   1_456     S
S3017     Ce3018    9.988   .     S
S3017     Er3203    9.995   .     S
S3017     Ne3140    9.999   .     S
Ce3018     N3139    10.007   .     S
Ce3018     Ce3006    10.013   1_554     S
S3019     Ce3020    9.988   .     S
S3019     Er3194    9.995   .     S
S3019     Ne3190    9.999   .     S
Ce3020     N3189    10.007   .     S
Ce3020     Ce3024    10.013   .     S
S3021     Ce3022    9.988   .     S
S3021     Er3205    9.995   .     S
S3021     Ne3146    9.999   .     S
S3021     S3047    10.001   1_655     S
Ce3022     N3145    10.007   .     S
Ce3022     Ce3048    10.007   .     S
Ce3022     Ce3046    10.013   1_554     S
S3023     Ce3024    9.988   .     S
S3023     Er3193    9.995   .     S
S3023     Ne3188    9.999   .     S
Ce3024     N3187    10.007   .     S
S3025     Ce3026    9.988   .     S
S3025     Er3202    9.995   .     S
S3025     Ne3122    9.999   .     S
S3025     S3005    10.001   1_556     S
Ce3026     N3121    10.007   .     S
Ce3026     Ce3038    10.013   .     S
S3027     Ce3028    9.988   .     S
S3027     Er3211    9.995   .     S
S3027     Ne3178    9.999   .     S
S3027     S3029    10.001   .     S
Ce3028     N3177    10.007   .     S
Ce3028     Ce3030    10.007   .     S
S3029     Ce3030    9.988   .     S
S3029     Er3209    9.995   .     S
S3029     Ne3172    9.999   .     S
Ce3030     N3171    10.007   .     S
S3031     Ce3032    9.988   1_455     S
S3031     Er3213    9.995   .     S
S3031     Ne3136    9.999   .     S
S3031     S3045    10.001   1_456     S
Ce3032     S3031    9.988   1_655     S
Ce3032     N3135    10.007   1_655     S
Ce3032     Ce3046    10.007   .     S
Ce3032     Ce3034    10.013   1_655     S
S3033     Ce3034    9.988   .     S
S3033     Er3214    9.995   .     S
S3033     Ne3134    9.999   .     S
S3033     S3015    10.001   1_556     S
Ce3034     N3133    10.007   .     S
Ce3034     Ce3032    10.013   1_455     S
S3035     Ce3036    9.988   .     S
S3035     Er3195    9.995   .     S
S3035     Ne3130    9.999   .     S
S3035     S3043    10.001   .     S
Ce3036     N3129    10.007   .     S
Ce3036     Ce3044    10.007   .     S
Ce3036     Ce3042    10.013   1_455     S
S3037     Ce3038    9.988   .     S
S3037     Er3201    9.995   .     S
S3037     Ne3124    9.999   .     S
S3037     S3039    10.001   1_556     S
Ce3038     N3123    10.007   .     S
Ce3038     Ce3040    10.007   .     S
S3039     Ce3040    9.988   1_554     S
S3039     Er3216    9.995   .     S
S3039     Ne3160    9.999   .     S
S3039     S3037    10.001   1_554     S
Ce3040     S3039    9.988   1_556     S
Ce3040     N3159    10.007   1_556     S
Ce3040     Ce3010    10.013   1_556     S
S3041     Ce3042    9.988   1_455     S
S3041     Er3196    9.995   .     S
S3041     Ne3128    9.999   .     S
S3041     S3007    10.001   1_455     S
Ce3042     S3041    9.988   1_655     S
Ce3042     N3127    10.007   1_655     S
Ce3042     Ce3036    10.013   1_655     S
S3043     Ce3044    9.988   .     S
S3043     Er3207    9.995   .     S
S3043     Ne3164    9.999   .     S
Ce3044     N3163    10.007   .     S
Ce3044     Ce3002    10.013   1_455     S
S3045     Ce3046    9.988   1_554     S
S3045     Er3206    9.995   .     S
S3045     Ne3148    9.999   .     S
S3045     S3031    10.001   1_654     S
Ce3046     S3045    9.988   1_556     S
Ce3046     N3147    10.007   1_556     S
Ce3046     Ce3022    10.013   1_556     S
S3047     Ce3048    9.988   1_455     S
S3047     Er3197    9.995   .     S
S3047     Ne3182    9.999   .     S
S3047     S3021    10.001   1_455     S
Ce3048     S3047    9.988   1_655     S
Ce3048     N3181    10.007   1_655     S
Ce3048     Ce3016    10.013   1_654     S
Be3049     He3050    9.991   .     S
Be3049     Be3064    10.001   .     S
Be3049     Be3088    10.013   .     S
He3050     C3051    9.993   .     S
He3050     He3089    10.004   .     S
C3051     B3137    9.997   .     S
C3051     C3090    10.007   .     S
C3051     C3066    10.007   .     S
Be3052     He3053    9.991   .     S
Be3052     Be3097    10.001   .     S
Be3052     Be3076    10.013   .     S
He3053     C3054    9.993   .     S
He3053     He3077    10.004   .     S
C3054     B3179    9.997   .     S
C3054     C3078    10.007   .     S
C3054     C3099    10.007   .     S
Be3055     He3056    9.991   .     S
Be3055     Be3085    10.001   .     S
Be3055     Be3073    10.013   .     S
He3056     C3057    9.993   .     S
He3056     He3074    10.004   .     S
C3057     B3191    9.997   .     S
C3057     C3087    10.007   .     S
C3057     C3075    10.007   .     S
Be3058     He3059    9.991   .     S
Be3058     Be3106    10.001   .     S
Be3058     Be3061    10.013   .     S
He3059     C3060    9.993   .     S
He3059     He3062    10.004   .     S
C3060     B3132    9.997   .     S
C3060     C3063    10.007   .     S
C3060     C3108    10.007   .     S
Be3061     He3062    9.991   .     S
Be3061     Be3109    10.001   .     S
He3062     C3063    9.993   .     S
C3063     B3143    9.997   .     S
C3063     C3111    10.007   .     S
Be3064     He3065    9.991   .     S
Be3064     Be3115    10.013   .     S
He3065     C3066    9.993   .     S
He3065     He3116    10.004   .     S
C3066     B3138    9.997   .     S
C3066     C3117    10.007   .     S
Be3067     He3068    9.991   .     S
Be3067     Be3076    10.001   .     S
Be3067     Be3097    10.013   .     S
He3068     C3069    9.993   .     S
He3068     He3098    10.004   .     S
C3069     B3168    9.997   .     S
C3069     C3078    10.007   .     S
C3069     C3099    10.007   .     S
Be3070     He3071    9.991   .     S
Be3070     Be3073    10.001   .     S
Be3070     Be3085    10.013   .     S
He3071     C3072    9.993   .     S
He3071     He3086    10.004   .     S
C3072     B3186    9.997   .     S
C3072     C3087    10.007   .     S
C3072     C3075    10.007   .     S
Be3073     He3074    9.991   .     S
He3074     C3075    9.993   .     S
C3075     B3185    9.997   .     S
Be3076     He3077    9.991   .     S
He3077     C3078    9.993   .     S
C3078     B3167    9.997   .     S
Be3079     He3080    9.991   .     S
Be3079     Be3091    10.001   .     S
Be3079     Be3103    10.013   .     S
He3080     C3081    9.993   .     S
He3080     He3104    10.004   .     S
C3081     B3174    9.997   .     S
C3081     C3105    10.007   .     S
C3081     C3093    10.007   .     S
Be3082     He3083    9.991   .     S
Be3082     Be3100    10.001   .     S
Be3082     Be3094    10.013   .     S
He3083     C3084    9.993   .     S
He3083     He3095    10.004   .     S
C3084     B3149    9.997   .     S
C3084     C3096    10.007   .     S
C3084     C3102    10.007   .     S
Be3085     He3086    9.991   .     S
He3086     C3087    9.993   .     S
C3087     B3192    9.997   .     S
Be3088     He3089    9.991   .     S
Be3088     Be3115    10.001   .     S
He3089     C3090    9.993   .     S
C3090     B3126    9.997   .     S
C3090     C3117    10.007   .     S
Be3091     He3092    9.991   .     S
Be3091     Be3118    10.013   .     S
He3092     C3093    9.993   .     S
He3092     He3119    10.004   .     S
C3093     B3173    9.997   .     S
C3093     C3120    10.007   .     S
Be3094     He3095    9.991   .     S
Be3094     Be3112    10.001   .     S
He3095     C3096    9.993   .     S
C3096     B3156    9.997   .     S
C3096     C3114    10.007   .     S
Be3097     He3098    9.991   .     S
He3098     C3099    9.993   .     S
C3099     B3180    9.997   .     S
Be3100     He3101    9.991   .     S
Be3100     Be3112    10.013   .     S
He3101     C3102    9.993   .     S
He3101     He3113    10.004   .     S
C3102     B3150    9.997   .     S
C3102     C3114    10.007   .     S
Be3103     He3104    9.991   .     S
Be3103     Be3118    10.001   .     S
He3104     C3105    9.993   .     S
C3105     B3161    9.997   .     S
C3105     C3120    10.007   .     S
Be3106     He3107    9.991   .     S
Be3106     Be3109    10.013   .     S
He3107     C3108    9.993   .     S
He3107     He3110    10.004   .     S
C3108     B3131    9.997   .     S
C3108     C3111    10.007   .     S
Be3109     He3110    9.991   .     S
He3110     C3111    9.993   .     S
C3111     B3144    9.997   .     S
Be3112     He3113    9.991   .     S
He3113     C3114    9.993   .     S
C3114     B3155    9.997   .     S
Be3115     He3116    9.991   .     S
He3116     C3117    9.993   .     S
C3117     B3125    9.997   .     S
Be3118     He3119    9.991   .     S
He3119     C3120    9.993   .     S
C3120     B3162    9.997   .     S
N3121     Ne3122    9.989   .     S
N3121     N3123    10.001   .     S
Ne3122     B3125    9.992   .     S
N3123     Ne3124    9.989   .     S
Ne3124     B3126    9.992   .     S
B3125     B3126    9.989   .     S
B3125     Er3202    9.993   .     S
B3126     Er3201    9.993   .     S
N3127     Ne3128    9.989   .     S
N3127     N3129    10.001   .     S
N3127     Ce3042    10.007   1_455     S
N3127     O1689    10.013   1_455     S
Ne3128     B3131    9.992   .     S
N3129     Ne3130    9.989   .     S
Ne3130     B3132    9.992   .     S
B3131     B3132    9.989   .     S
B3131     Er3196    9.993   .     S
B3132     Er3195    9.993   .     S
N3133     Ne3134    9.989   .     S
N3133     N3135    10.001   .     S
Ne3134     B3137    9.992   .     S
N3135     Ne3136    9.989   .     S
N3135     Ce3032    10.007   1_455     S
N3135     O593    10.013   1_455     S
Ne3136     B3138    9.992   .     S
B3137     B3138    9.989   .     S
B3137     Er3214    9.993   .     S
B3138     Er3213    9.993   .     S
N3139     Ne3140    9.989   .     S
N3139     N3141    10.001   .     S
Ne3140     B3143    9.992   .     S
N3141     Ne3142    9.989   .     S
N3141     Ce3006    10.007   1_554     S
N3141     O1705    10.013   1_554     S
Ne3142     B3144    9.992   .     S
B3143     B3144    9.989   .     S
B3143     Er3203    9.993   .     S
B3144     Er3204    9.993   .     S
N3145     Ne3146    9.989   .     S
N3145     N3147    10.001   .     S
Ne3146     B3149    9.992   .     S
N3147     Ne3148    9.989   .     S
N3147     Ce3046    10.007   1_554     S
N3147     O561    10.013   1_554     S
Ne3148     B3150    9.992   .     S
B3149     B3150    9.989   .     S
B3149     Er3205    9.993   .     S
B3150     Er3206    9.993   .     S
N3151     Ne3152    9.989   .     S
N3151     N3153    10.001   .     S
Ne3152     B3155    9.992   .     S
N3153     Ne3154    9.989   .     S
Ne3154     B3156    9.992   .     S
B3155     B3156    9.989   .     S
B3155     Er3199    9.993   .     S
B3156     Er3200    9.993   .     S
N3157     Ne3158    9.989   .     S
N3157     N3159    10.001   .     S
Ne3158     B3162    9.992   .     S
N3159     Ne3160    9.989   .     S
N3159     Ce3040    10.007   1_554     S
N3159     O413    10.013   1_554     S
Ne3160     B3161    9.992   .     S
B3161     B3162    9.989   .     S
B3161     Er3216    9.993   .     S
B3162     Er3215    9.993   .     S
N3163     Ne3164    9.989   .     S
N3163     N3165    10.001   .     S
Ne3164     B3167    9.992   .     S
N3165     Ne3166    9.989   .     S
N3165     Ce3002    10.007   1_455     S
N3165     O501    10.013   1_455     S
Ne3166     B3168    9.992   .     S
B3167     B3168    9.989   .     S
B3167     Er3207    9.993   .     S
B3168     Er3208    9.993   .     S
N3169     Ne3170    9.989   .     S
N3169     N3171    10.001   .     S
Ne3170     B3174    9.992   .     S
N3171     Ne3172    9.989   .     S
Ne3172     B3173    9.992   .     S
B3173     B3174    9.989   .     S
B3173     Er3209    9.993   .     S
B3174     Er3210    9.993   .     S
N3175     Ne3176    9.989   .     S
N3175     N3177    10.001   .     S
Ne3176     B3180    9.992   .     S
N3177     Ne3178    9.989   .     S
Ne3178     B3179    9.992   .     S
B3179     B3180    9.989   .     S
B3179     Er3211    9.993   .     S
B3180     Er3212    9.993   .     S
N3181     Ne3182    9.989   .     S
N3181     N3183    10.001   .     S
N3181     Ce3048    10.007   1_455     S
N3181     O2929    10.013   1_455     S
Ne3182     B3186    9.992   .     S
N3183     Ne3184    9.989   .     S
N3183     Ce3016    10.007   1_554     S
N3183     O2937    10.013   1_554     S
Ne3184     B3185    9.992   .     S
B3185     B3186    9.989   .     S
B3185     Er3198    9.993   .     S
B3186     Er3197    9.993   .     S
N3187     Ne3188    9.989   .     S
N3187     N3189    10.001   .     S
Ne3188     B3191    9.992   .     S
N3189     Ne3190    9.989   .     S
Ne3190     B3192    9.992   .     S
B3191     B3192    9.989   .     S
B3191     Er3193    9.993   .     S
B3192     Er3194    9.993   .     S
Er3193     Er3194    9.986   .     S
Er3193     Ti3232    9.992   .     S
Er3194     Ti3231    9.992   .     S
Er3195     Er3196    9.986   .     S
Er3195     Ti3247    9.992   .     S
Er3196     Ti3248    9.992   .     S
Er3197     Er3198    9.986   .     S
Er3197     Ti3222    9.992   .     S
Er3198     Ti3221    9.992   .     S
Er3199     Er3200    9.986   .     S
Er3199     Ti3220    9.992   1_655     S
Er3200     Ti3219    9.992   1_655     S
Er3201     Er3202    9.986   .     S
Er3201     Ti3218    9.992   1_556     S
Er3202     Ti3217    9.992   1_556     S
Er3203     Er3204    9.986   .     S
Er3203     Ti3243    9.992   .     S
Er3204     Ti3244    9.992   .     S
Er3205     Er3206    9.986   .     S
Er3205     Ti3245    9.992   1_655     S
Er3206     Ti3246    9.992   1_655     S
Er3207     Er3208    9.986   .     S
Er3207     Ti3241    9.992   .     S
Er3208     Ti3242    9.992   .     S
Er3209     Er3210    9.986   .     S
Er3209     Ti3257    9.992   .     S
Er3210     Ti3258    9.992   .     S
Er3211     Er3212    9.986   .     S
Er3211     Ti3255    9.992   .     S
Er3212     Ti3256    9.992   .     S
Er3213     Er3214    9.986   .     S
Er3213     Ti3239    9.992   1_556     S
Er3214     Ti3240    9.992   1_556     S
Er3215     Er3216    9.986   .     S
Er3215     Ti3223    9.992   .     S
Er3216     Ti3224    9.992   .     S
Ti3217     Er3202    9.992   1_554     S
Ti3217     Ti3218    9.989   .     S
Ti3217     V3253    9.993   .     S
Ti3217     Ti3244    9.995   .     S
Ti3218     Er3201    9.992   1_554     S
Ti3218     V3225    9.993   .     S
Ti3218     Ti3224    9.995   .     S
Ti3219     Er3200    9.992   1_455     S
Ti3219     Ti3220    9.989   .     S
Ti3219     V3235    9.993   .     S
Ti3219     Ti3242    9.995   .     S
Ti3220     Er3199    9.992   1_455     S
Ti3220     V3251    9.993   .     S
Ti3220     Ti3248    9.995   .     S
Ti3221     Ti3222    9.989   .     S
Ti3221     V3227    9.993   .     S
Ti3221     Ti3240    9.995   .     S
Ti3222     V3237    9.993   .     S
Ti3222     Ti3245    9.995   .     S
Ti3223     Ti3224    9.989   .     S
Ti3223     V3262    9.993   .     S
Ti3223     Ti3243    9.995   .     S
Ti3224     V3226    9.993   .     S
V3225     V3226    9.986   .     S
V3225     V3228    9.992   .     S
V3225     V3253    9.998   .     S
V3226     V3229    9.992   .     S
V3226     V3262    9.998   .     S
V3227     V3228    9.986   .     S
V3227     V3230    9.992   .     S
V3227     V3237    9.998   .     S
V3228     Ti3240    9.993   .     S
V3228     V3249    9.998   .     S
V3229     V3230    9.986   .     S
V3229     Ti3258    9.993   .     S
V3229     V3264    9.998   .     S
V3230     Ti3232    9.993   .     S
V3230     V3233    9.998   .     S
Ti3231     Ti3232    9.989   .     S
Ti3231     V3233    9.993   .     S
Ti3231     Ti3256    9.995   .     S
Ti3232     Ti3258    9.995   .     S
V3233     V3234    9.986   .     S
V3233     V3237    9.992   .     S
V3234     Ti3256    9.993   .     S
V3234     V3236    9.992   .     S
V3234     V3263    9.998   .     S
V3235     V3236    9.986   .     S
V3235     V3238    9.992   .     S
V3235     V3251    9.998   .     S
V3236     Ti3242    9.993   .     S
V3236     V3260    9.998   .     S
V3237     V3238    9.986   .     S
V3238     Ti3245    9.993   .     S
V3238     V3250    9.998   .     S
Ti3239     Er3213    9.992   1_554     S
Ti3239     Ti3240    9.989   .     S
Ti3239     V3249    9.993   .     S
Ti3239     Ti3246    9.995   .     S
Ti3240     Er3214    9.992   1_554     S
Ti3241     Ti3242    9.989   .     S
Ti3241     V3260    9.993   .     S
Ti3241     Ti3247    9.995   .     S
Ti3243     Ti3244    9.989   .     S
Ti3243     V3261    9.993   .     S
Ti3244     V3254    9.993   .     S
Ti3245     Er3205    9.992   1_455     S
Ti3245     Ti3246    9.989   .     S
Ti3246     Er3206    9.992   1_455     S
Ti3246     V3250    9.993   .     S
Ti3247     Ti3248    9.989   .     S
Ti3247     V3259    9.993   .     S
Ti3248     V3252    9.993   .     S
V3249     V3250    9.986   .     S
V3249     V3253    9.992   .     S
V3250     V3251    9.992   .     S
V3251     V3252    9.986   .     S
V3252     V3254    9.992   .     S
V3252     V3259    9.998   .     S
V3253     V3254    9.986   .     S
V3254     V3261    9.998   .     S
Ti3255     Ti3256    9.989   .     S
Ti3255     V3263    9.993   .     S
Ti3255     Ti3257    9.995   .     S
Ti3257     Ti3258    9.989   .     S
Ti3257     V3264    9.993   .     S
V3259     V3260    9.986   .     S
V3259     V3261    9.992   .     S
V3260     V3263    9.992   .     S
V3261     V3262    9.986   .     S
V3262     V3264    9.992   .     S
V3263     V3264    9.986   .     S
