data_fcj
_audit_creation_date              2020-02-02
_audit_creation_method            'Pymatgen'
_symmetry_space_group_name_H-M    'P1'
_symmetry_Int_Tables_number       1
loop_
_symmetry_equiv_pos_as_xyz
  x,y,z
_cell_length_a                    30.6229
_cell_length_b                    30.6229
_cell_length_c                    30.6229
_cell_angle_alpha                 90.0
_cell_angle_beta                 90.0
_cell_angle_gamma                 90.0
loop_
_atom_site_label
_atom_site_type_symbol
_atom_site_fract_x
_atom_site_fract_y
_atom_site_fract_z
V1     V     0.5928   0.2948   0.6416
V2     V     0.8584   0.4072   0.7948
V3     V     0.7052   0.1416   0.9072
V4     V     0.6572   0.6084   0.9552
V5     V     0.5448   0.3428   0.1084
V6     V     0.3916   0.4552   0.8428
V7     V     0.9552   0.6572   0.6084
V8     V     0.1084   0.5448   0.3428
V9     V     0.8428   0.3916   0.4552
V10     V     0.6416   0.5928   0.2948
V11     V     0.7948   0.8584   0.4072
V12     V     0.9072   0.7052   0.1416
V13     V     0.6084   0.9552   0.6572
V14     V     0.3428   0.1084   0.5448
V15     V     0.4552   0.8428   0.3916
V16     V     0.2948   0.6416   0.5928
V17     V     0.4072   0.7948   0.8584
V18     V     0.1416   0.9072   0.7052
V19     V     0.1572   0.8916   0.0448
V20     V     0.0448   0.1572   0.8916
V21     V     0.8916   0.0448   0.1572
V22     V     0.3584   0.0928   0.2052
V23     V     0.0928   0.2052   0.3584
V24     V     0.2052   0.3584   0.0928
loop_
_geom_bond_atom_site_label_1
_geom_bond_atom_site_label_2
_geom_bond_distance
_geom_bond_site_symmetry_2
_ccdc_geom_bond_type
V1     V2    10.0   .     S
V1     V3    10.0   .     S
V1     V6    10.0   .     S
V1     V14    10.0   .     S
V1     V9    10.0   .     S
V2     V3    10.0   .     S
V2     V4    10.0   .     S
V2     V7    10.0   .     S
V2     V20    10.0   1_655     S
V3     V5    10.0   1_556     S
V3     V21    10.0   1_556     S
V3     V13    10.0   1_545     S
V4     V6    10.0   .     S
V4     V5    10.0   1_556     S
V4     V12    10.0   1_556     S
V4     V17    10.0   .     S
V5     V3    10.0   1_554     S
V5     V4    10.0   1_554     S
V5     V6    10.0   1_554     S
V5     V22    10.0   .     S
V5     V10    10.0   .     S
V6     V5    10.0   1_556     S
V6     V16    10.0   .     S
V6     V24    10.0   1_556     S
V7     V9    10.0   .     S
V7     V8    10.0   1_655     S
V7     V11    10.0   .     S
V7     V18    10.0   1_655     S
V8     V7    10.0   1_455     S
V8     V9    10.0   1_455     S
V8     V12    10.0   1_455     S
V8     V24    10.0   .     S
V8     V16    10.0   .     S
V9     V8    10.0   1_655     S
V9     V10    10.0   .     S
V9     V23    10.0   1_655     S
V10     V11    10.0   .     S
V10     V12    10.0   .     S
V10     V15    10.0   .     S
V11     V12    10.0   .     S
V11     V13    10.0   .     S
V11     V21    10.0   1_565     S
V12     V4    10.0   1_554     S
V12     V8    10.0   1_655     S
V12     V19    10.0   1_655     S
V13     V15    10.0   .     S
V13     V14    10.0   1_565     S
V13     V17    10.0   .     S
V13     V3    10.0   1_565     S
V14     V13    10.0   1_545     S
V14     V15    10.0   1_545     S
V14     V18    10.0   1_545     S
V14     V23    10.0   .     S
V15     V14    10.0   1_565     S
V15     V16    10.0   .     S
V15     V22    10.0   1_565     S
V16     V17    10.0   .     S
V16     V18    10.0   .     S
V17     V18    10.0   .     S
V17     V19    10.0   1_556     S
V18     V7    10.0   1_455     S
V18     V14    10.0   1_565     S
V18     V20    10.0   1_565     S
V19     V12    10.0   1_455     S
V19     V21    10.0   1_465     S
V19     V20    10.0   1_564     S
V19     V22    10.0   1_565     S
V19     V17    10.0   1_554     S
V20     V18    10.0   1_545     S
V20     V19    10.0   1_546     S
V20     V21    10.0   1_456     S
V20     V24    10.0   1_556     S
V20     V2    10.0   1_455     S
V21     V3    10.0   1_554     S
V21     V19    10.0   1_645     S
V21     V20    10.0   1_654     S
V21     V23    10.0   1_655     S
V21     V11    10.0   1_545     S
V22     V24    10.0   .     S
V22     V23    10.0   .     S
V22     V19    10.0   1_545     S
V22     V15    10.0   1_545     S
V23     V24    10.0   .     S
V23     V21    10.0   1_455     S
V23     V9    10.0   1_455     S
V24     V20    10.0   1_554     S
V24     V6    10.0   1_554     S
