data_fcl
_audit_creation_date              2020-02-02
_audit_creation_method            'Pymatgen'
_symmetry_space_group_name_H-M    'P1'
_symmetry_Int_Tables_number       1
loop_
_symmetry_equiv_pos_as_xyz
  x,y,z
_cell_length_a                    39.9072
_cell_length_b                    39.9072
_cell_length_c                    39.9072
_cell_angle_alpha                 90.0
_cell_angle_beta                 90.0
_cell_angle_gamma                 90.0
loop_
_atom_site_label
_atom_site_type_symbol
_atom_site_fract_x
_atom_site_fract_y
_atom_site_fract_z
V1     V     0.3752   0.5772   0.5044
V2     V     0.3272   0.6252   0.7456
V3     V     0.3272   0.3748   0.7544
V4     V     0.3752   0.4228   0.9956
V5     V     0.1728   0.6252   0.2544
V6     V     0.1248   0.5772   0.4956
V7     V     0.1728   0.3748   0.2456
V8     V     0.1248   0.4228   0.0044
V9     V     0.2544   0.8272   0.8748
V10     V     0.4956   0.8752   0.9228
V11     V     0.0044   0.8752   0.0772
V12     V     0.2456   0.8272   0.1252
V13     V     0.5044   0.6248   0.9228
V14     V     0.7456   0.6728   0.8748
V15     V     0.7544   0.6728   0.1252
V16     V     0.9956   0.6248   0.0772
V17     V     0.5044   0.3752   0.5772
V18     V     0.7456   0.3272   0.6252
V19     V     0.9956   0.3752   0.4228
V20     V     0.7544   0.3272   0.3748
V21     V     0.2544   0.1728   0.6252
V22     V     0.4956   0.1248   0.5772
V23     V     0.2456   0.1728   0.3748
V24     V     0.0044   0.1248   0.4228
V25     V     0.9228   0.4956   0.8752
V26     V     0.8748   0.2544   0.8272
V27     V     0.1252   0.2456   0.8272
V28     V     0.0772   0.0044   0.8752
V29     V     0.9228   0.5044   0.6248
V30     V     0.8748   0.7456   0.6728
V31     V     0.0772   0.9956   0.6248
V32     V     0.1252   0.7544   0.6728
V33     V     0.8752   0.9228   0.4956
V34     V     0.8272   0.8748   0.2544
V35     V     0.8272   0.1252   0.2456
V36     V     0.8752   0.0772   0.0044
V37     V     0.6248   0.0772   0.9956
V38     V     0.6728   0.1252   0.7544
V39     V     0.6248   0.9228   0.5044
V40     V     0.6728   0.8748   0.7456
V41     V     0.5772   0.5044   0.3752
V42     V     0.6252   0.7456   0.3272
V43     V     0.5772   0.4956   0.1248
V44     V     0.6252   0.2544   0.1728
V45     V     0.4228   0.9956   0.3752
V46     V     0.3748   0.7544   0.3272
V47     V     0.3748   0.2456   0.1728
V48     V     0.4228   0.0044   0.1248
loop_
_geom_bond_atom_site_label_1
_geom_bond_atom_site_label_2
_geom_bond_distance
_geom_bond_site_symmetry_2
_ccdc_geom_bond_type
V1     V2    10.0   .     S
V1     V6    10.0   .     S
V1     V17    10.0   .     S
V1     V41    10.0   .     S
V1     V46    10.0   .     S
V2     V3    10.0   .     S
V2     V32    10.0   .     S
V2     V13    10.0   .     S
V2     V9    10.0   .     S
V3     V4    10.0   .     S
V3     V27    10.0   .     S
V3     V17    10.0   .     S
V3     V21    10.0   .     S
V4     V8    10.0   1_556     S
V4     V13    10.0   .     S
V4     V43    10.0   1_556     S
V4     V47    10.0   1_556     S
V5     V6    10.0   .     S
V5     V7    10.0   .     S
V5     V46    10.0   .     S
V5     V16    10.0   1_455     S
V5     V12    10.0   .     S
V6     V19    10.0   1_455     S
V6     V29    10.0   1_455     S
V6     V32    10.0   .     S
V7     V8    10.0   .     S
V7     V47    10.0   .     S
V7     V19    10.0   1_455     S
V7     V23    10.0   .     S
V8     V4    10.0   1_554     S
V8     V16    10.0   1_455     S
V8     V25    10.0   1_454     S
V8     V27    10.0   1_554     S
V9     V10    10.0   .     S
V9     V12    10.0   1_556     S
V9     V28    10.0   1_565     S
V9     V32    10.0   .     S
V10     V13    10.0   .     S
V10     V48    10.0   1_566     S
V10     V37    10.0   1_565     S
V10     V40    10.0   .     S
V11     V12    10.0   .     S
V11     V16    10.0   1_455     S
V11     V28    10.0   1_564     S
V11     V36    10.0   1_465     S
V11     V34    10.0   1_455     S
V12     V9    10.0   1_554     S
V12     V48    10.0   1_565     S
V12     V46    10.0   .     S
V13     V14    10.0   .     S
V13     V43    10.0   1_556     S
V14     V15    10.0   1_556     S
V14     V40    10.0   .     S
V14     V30    10.0   .     S
V14     V25    10.0   .     S
V15     V14    10.0   1_554     S
V15     V16    10.0   .     S
V15     V34    10.0   .     S
V15     V42    10.0   .     S
V15     V43    10.0   .     S
V16     V8    10.0   1_655     S
V16     V5    10.0   1_655     S
V16     V11    10.0   1_655     S
V16     V25    10.0   1_554     S
V17     V18    10.0   .     S
V17     V22    10.0   .     S
V17     V41    10.0   .     S
V18     V20    10.0   .     S
V18     V38    10.0   .     S
V18     V29    10.0   .     S
V18     V26    10.0   .     S
V19     V6    10.0   1_655     S
V19     V7    10.0   1_655     S
V19     V20    10.0   .     S
V19     V24    10.0   1_655     S
V19     V29    10.0   .     S
V20     V35    10.0   .     S
V20     V41    10.0   .     S
V20     V44    10.0   .     S
V21     V22    10.0   .     S
V21     V23    10.0   .     S
V21     V27    10.0   .     S
V21     V31    10.0   1_545     S
V22     V45    10.0   1_545     S
V22     V39    10.0   1_545     S
V22     V38    10.0   .     S
V23     V24    10.0   .     S
V23     V45    10.0   1_545     S
V23     V47    10.0   .     S
V24     V19    10.0   1_455     S
V24     V31    10.0   1_545     S
V24     V33    10.0   1_445     S
V24     V35    10.0   1_455     S
V25     V16    10.0   1_556     S
V25     V26    10.0   .     S
V25     V29    10.0   .     S
V25     V8    10.0   1_656     S
V26     V27    10.0   1_655     S
V26     V36    10.0   1_556     S
V26     V38    10.0   .     S
V27     V28    10.0   .     S
V27     V26    10.0   1_455     S
V27     V8    10.0   1_556     S
V28     V11    10.0   1_546     S
V28     V9    10.0   1_545     S
V28     V31    10.0   1_545     S
V28     V36    10.0   1_456     S
V29     V30    10.0   .     S
V29     V6    10.0   1_655     S
V30     V32    10.0   1_655     S
V30     V40    10.0   .     S
V30     V33    10.0   .     S
V31     V24    10.0   1_565     S
V31     V32    10.0   .     S
V31     V28    10.0   1_565     S
V31     V33    10.0   1_455     S
V31     V21    10.0   1_565     S
V32     V30    10.0   1_455     S
V33     V31    10.0   1_655     S
V33     V34    10.0   .     S
V33     V39    10.0   .     S
V33     V24    10.0   1_665     S
V34     V35    10.0   1_565     S
V34     V42    10.0   .     S
V34     V11    10.0   1_655     S
V35     V36    10.0   .     S
V35     V34    10.0   1_545     S
V35     V44    10.0   .     S
V35     V24    10.0   1_655     S
V36     V28    10.0   1_654     S
V36     V26    10.0   1_554     S
V36     V37    10.0   1_554     S
V36     V11    10.0   1_645     S
V37     V38    10.0   .     S
V37     V36    10.0   1_556     S
V37     V10    10.0   1_545     S
V37     V44    10.0   1_556     S
V37     V48    10.0   1_556     S
V38     V40    10.0   1_545     S
V39     V40    10.0   .     S
V39     V22    10.0   1_565     S
V39     V45    10.0   .     S
V39     V42    10.0   .     S
V40     V38    10.0   1_565     S
V41     V42    10.0   .     S
V41     V43    10.0   .     S
V42     V46    10.0   .     S
V43     V13    10.0   1_554     S
V43     V44    10.0   .     S
V43     V4    10.0   1_554     S
V44     V37    10.0   1_554     S
V44     V47    10.0   .     S
V45     V22    10.0   1_565     S
V45     V23    10.0   1_565     S
V45     V46    10.0   .     S
V45     V48    10.0   1_565     S
V47     V48    10.0   .     S
V47     V4    10.0   1_554     S
V48     V10    10.0   1_544     S
V48     V12    10.0   1_545     S
V48     V45    10.0   1_545     S
V48     V37    10.0   1_554     S
