data_fcs
_audit_creation_date              2020-02-02
_audit_creation_method            'Pymatgen'
_symmetry_space_group_name_H-M    'P1'
_symmetry_Int_Tables_number       1
loop_
_symmetry_equiv_pos_as_xyz
  x,y,z
_cell_length_a                    37.2868
_cell_length_b                    37.2868
_cell_length_c                    37.2868
_cell_angle_alpha                 90.0
_cell_angle_beta                 90.0
_cell_angle_gamma                 90.0
loop_
_atom_site_label
_atom_site_type_symbol
_atom_site_fract_x
_atom_site_fract_y
_atom_site_fract_z
V1     V     0.7904   0.582   0.6279
V2     V     0.582   0.6279   0.7904
V3     V     0.6279   0.7904   0.582
V4     V     0.7096   0.582   0.3721
V5     V     0.918   0.6279   0.2096
V6     V     0.8721   0.7904   0.418
V7     V     0.918   0.3721   0.2904
V8     V     0.8721   0.2096   0.082
V9     V     0.7096   0.418   0.1279
V10     V     0.582   0.3721   0.7096
V11     V     0.6279   0.2096   0.918
V12     V     0.7904   0.418   0.8721
V13     V     0.2096   0.082   0.8721
V14     V     0.3721   0.2904   0.918
V15     V     0.418   0.1279   0.7096
V16     V     0.3721   0.7096   0.582
V17     V     0.2096   0.918   0.6279
V18     V     0.418   0.8721   0.7904
V19     V     0.2904   0.082   0.1279
V20     V     0.082   0.1279   0.2904
V21     V     0.1279   0.2904   0.082
V22     V     0.2904   0.918   0.3721
V23     V     0.082   0.8721   0.2096
V24     V     0.1279   0.7096   0.418
V25     V     0.0404   0.8779   0.832
V26     V     0.832   0.0404   0.8779
V27     V     0.8779   0.832   0.0404
V28     V     0.832   0.9596   0.6221
V29     V     0.0404   0.1221   0.668
V30     V     0.8779   0.168   0.4596
V31     V     0.1221   0.668   0.0404
V32     V     0.9596   0.6221   0.832
V33     V     0.168   0.4596   0.8779
V34     V     0.6221   0.832   0.9596
V35     V     0.668   0.0404   0.1221
V36     V     0.4596   0.8779   0.168
V37     V     0.6221   0.168   0.5404
V38     V     0.668   0.9596   0.3779
V39     V     0.4596   0.1221   0.332
V40     V     0.3779   0.668   0.9596
V41     V     0.5404   0.6221   0.168
V42     V     0.332   0.4596   0.1221
V43     V     0.9596   0.3779   0.668
V44     V     0.168   0.5404   0.6221
V45     V     0.1221   0.332   0.4596
V46     V     0.332   0.5404   0.3779
V47     V     0.5404   0.3779   0.332
V48     V     0.3779   0.332   0.5404
loop_
_geom_bond_atom_site_label_1
_geom_bond_atom_site_label_2
_geom_bond_distance
_geom_bond_site_symmetry_2
_ccdc_geom_bond_type
V1     V2    10.0   .     S
V1     V32    10.0   .     S
V1     V3    10.0   .     S
V1     V4    10.0   .     S
V1     V43    10.0   .     S
V2     V3    10.0   .     S
V2     V34    10.0   .     S
V2     V10    10.0   .     S
V2     V40    10.0   .     S
V3     V28    10.0   .     S
V3     V16    10.0   .     S
V3     V38    10.0   .     S
V4     V5    10.0   .     S
V4     V41    10.0   .     S
V4     V6    10.0   .     S
V4     V47    10.0   .     S
V5     V6    10.0   .     S
V5     V27    10.0   .     S
V5     V7    10.0   .     S
V5     V31    10.0   1_655     S
V6     V38    10.0   .     S
V6     V24    10.0   1_655     S
V6     V28    10.0   .     S
V7     V8    10.0   .     S
V7     V30    10.0   .     S
V7     V9    10.0   .     S
V7     V45    10.0   1_655     S
V8     V9    10.0   .     S
V8     V35    10.0   .     S
V8     V21    10.0   1_655     S
V8     V26    10.0   1_554     S
V9     V47    10.0   .     S
V9     V12    10.0   1_554     S
V9     V41    10.0   .     S
V10     V11    10.0   .     S
V10     V37    10.0   .     S
V10     V12    10.0   .     S
V10     V48    10.0   .     S
V11     V12    10.0   .     S
V11     V26    10.0   .     S
V11     V14    10.0   .     S
V11     V35    10.0   1_556     S
V12     V9    10.0   1_556     S
V12     V43    10.0   .     S
V12     V32    10.0   .     S
V13     V15    10.0   .     S
V13     V29    10.0   .     S
V13     V14    10.0   .     S
V13     V19    10.0   1_556     S
V13     V25    10.0   1_545     S
V14     V33    10.0   .     S
V14     V15    10.0   .     S
V14     V42    10.0   1_556     S
V15     V48    10.0   .     S
V15     V18    10.0   1_545     S
V15     V37    10.0   .     S
V16     V17    10.0   .     S
V16     V44    10.0   .     S
V16     V18    10.0   .     S
V16     V46    10.0   .     S
V17     V18    10.0   .     S
V17     V25    10.0   .     S
V17     V22    10.0   .     S
V17     V29    10.0   1_565     S
V18     V15    10.0   1_565     S
V18     V40    10.0   .     S
V18     V34    10.0   .     S
V19     V20    10.0   .     S
V19     V39    10.0   .     S
V19     V21    10.0   .     S
V19     V13    10.0   1_554     S
V19     V36    10.0   1_545     S
V20     V21    10.0   .     S
V20     V45    10.0   .     S
V20     V23    10.0   1_545     S
V20     V30    10.0   1_455     S
V21     V42    10.0   .     S
V21     V8    10.0   1_455     S
V21     V33    10.0   1_554     S
V22     V23    10.0   .     S
V22     V36    10.0   .     S
V22     V24    10.0   .     S
V22     V39    10.0   1_565     S
V23     V20    10.0   1_565     S
V23     V24    10.0   .     S
V23     V31    10.0   .     S
V23     V27    10.0   1_455     S
V24     V46    10.0   .     S
V24     V6    10.0   1_455     S
V24     V44    10.0   .     S
V25     V26    10.0   1_465     S
V25     V13    10.0   1_565     S
V25     V27    10.0   1_456     S
V25     V32    10.0   1_455     S
V26     V25    10.0   1_645     S
V26     V27    10.0   1_546     S
V26     V8    10.0   1_556     S
V26     V28    10.0   1_545     S
V27     V26    10.0   1_564     S
V27     V25    10.0   1_654     S
V27     V23    10.0   1_655     S
V27     V34    10.0   1_554     S
V28     V26    10.0   1_565     S
V28     V30    10.0   1_565     S
V28     V29    10.0   1_665     S
V29     V28    10.0   1_445     S
V29     V17    10.0   1_545     S
V29     V30    10.0   1_455     S
V29     V43    10.0   1_455     S
V30     V28    10.0   1_545     S
V30     V29    10.0   1_655     S
V30     V20    10.0   1_655     S
V30     V37    10.0   .     S
V31     V32    10.0   1_454     S
V31     V5    10.0   1_455     S
V31     V33    10.0   1_554     S
V31     V40    10.0   1_554     S
V32     V25    10.0   1_655     S
V32     V31    10.0   1_656     S
V32     V33    10.0   1_655     S
V33     V32    10.0   1_455     S
V33     V31    10.0   1_556     S
V33     V21    10.0   1_556     S
V33     V44    10.0   .     S
V34     V27    10.0   1_556     S
V34     V36    10.0   1_556     S
V34     V35    10.0   1_566     S
V35     V34    10.0   1_544     S
V35     V11    10.0   1_554     S
V35     V36    10.0   1_545     S
V35     V38    10.0   1_545     S
V36     V34    10.0   1_554     S
V36     V35    10.0   1_565     S
V36     V19    10.0   1_565     S
V36     V41    10.0   .     S
V37     V39    10.0   .     S
V37     V38    10.0   1_545     S
V38     V37    10.0   1_565     S
V38     V39    10.0   1_565     S
V38     V35    10.0   1_565     S
V39     V38    10.0   1_545     S
V39     V22    10.0   1_545     S
V39     V47    10.0   .     S
V40     V31    10.0   1_556     S
V40     V41    10.0   1_556     S
V40     V42    10.0   1_556     S
V41     V40    10.0   1_554     S
V41     V42    10.0   .     S
V42     V40    10.0   1_554     S
V42     V14    10.0   1_554     S
V42     V46    10.0   .     S
V43     V29    10.0   1_655     S
V43     V44    10.0   1_655     S
V43     V45    10.0   1_655     S
V44     V43    10.0   1_455     S
V44     V45    10.0   .     S
V45     V43    10.0   1_455     S
V45     V7    10.0   1_455     S
V45     V48    10.0   .     S
V46     V48    10.0   .     S
V46     V47    10.0   .     S
V47     V48    10.0   .     S
