data_flue
_audit_creation_date              2020-02-02
_audit_creation_method            'Pymatgen'
_symmetry_space_group_name_H-M    'P1'
_symmetry_Int_Tables_number       1
loop_
_symmetry_equiv_pos_as_xyz
  x,y,z
_cell_length_a                    34.1421
_cell_length_b                    34.1421
_cell_length_c                    34.1421
_cell_angle_alpha                 90.0
_cell_angle_beta                 90.0
_cell_angle_gamma                 90.0
loop_
_atom_site_label
_atom_site_type_symbol
_atom_site_fract_x
_atom_site_fract_y
_atom_site_fract_z
V1     V     0.8536   0.8536   0.6464
V2     V     0.6464   0.8536   0.8536
V3     V     0.8536   0.6464   0.8536
V4     V     0.6464   0.6464   0.6464
V5     V     0.8536   0.1464   0.6464
V6     V     0.8536   0.3535   0.8536
V7     V     0.6464   0.1464   0.8536
V8     V     0.6464   0.3535   0.6464
V9     V     0.1464   0.8536   0.6464
V10     V     0.3535   0.8536   0.8536
V11     V     0.1464   0.6464   0.8536
V12     V     0.3535   0.6464   0.6464
V13     V     0.1464   0.1464   0.6464
V14     V     0.3535   0.3535   0.6464
V15     V     0.3535   0.1464   0.8536
V16     V     0.1464   0.3535   0.8536
V17     V     0.8536   0.8536   0.3535
V18     V     0.8536   0.6464   0.1464
V19     V     0.6464   0.8536   0.1464
V20     V     0.6464   0.6464   0.3535
V21     V     0.6464   0.1464   0.1464
V22     V     0.6464   0.3535   0.3535
V23     V     0.8536   0.1464   0.3535
V24     V     0.8536   0.3535   0.1464
V25     V     0.1464   0.1464   0.3535
V26     V     0.1464   0.3535   0.1464
V27     V     0.3535   0.1464   0.1464
V28     V     0.3535   0.3535   0.3535
V29     V     0.1464   0.6464   0.1464
V30     V     0.3535   0.6464   0.3535
V31     V     0.1464   0.8536   0.3535
V32     V     0.3535   0.8536   0.1464
loop_
_geom_bond_atom_site_label_1
_geom_bond_atom_site_label_2
_geom_bond_distance
_geom_bond_site_symmetry_2
_ccdc_geom_bond_type
V1     V2    10.0   .     S
V1     V3    10.0   .     S
V1     V4    10.0   .     S
V1     V5    10.0   1_565     S
V1     V9    10.0   1_655     S
V1     V17    10.0   .     S
V2     V3    10.0   .     S
V2     V4    10.0   .     S
V2     V19    10.0   1_556     S
V2     V7    10.0   1_565     S
V2     V10    10.0   .     S
V3     V4    10.0   .     S
V3     V18    10.0   1_556     S
V3     V11    10.0   1_655     S
V3     V6    10.0   .     S
V4     V20    10.0   .     S
V4     V8    10.0   .     S
V4     V12    10.0   .     S
V5     V1    10.0   1_545     S
V5     V6    10.0   .     S
V5     V7    10.0   .     S
V5     V8    10.0   .     S
V5     V13    10.0   1_655     S
V5     V23    10.0   .     S
V6     V7    10.0   .     S
V6     V8    10.0   .     S
V6     V24    10.0   1_556     S
V6     V16    10.0   1_655     S
V7     V2    10.0   1_545     S
V7     V8    10.0   .     S
V7     V21    10.0   1_556     S
V7     V15    10.0   .     S
V8     V22    10.0   .     S
V8     V14    10.0   .     S
V9     V1    10.0   1_455     S
V9     V10    10.0   .     S
V9     V11    10.0   .     S
V9     V12    10.0   .     S
V9     V13    10.0   1_565     S
V9     V31    10.0   .     S
V10     V11    10.0   .     S
V10     V12    10.0   .     S
V10     V32    10.0   1_556     S
V10     V15    10.0   1_565     S
V11     V3    10.0   1_455     S
V11     V12    10.0   .     S
V11     V29    10.0   1_556     S
V11     V16    10.0   .     S
V12     V30    10.0   .     S
V12     V14    10.0   .     S
V13     V5    10.0   1_455     S
V13     V9    10.0   1_545     S
V13     V14    10.0   .     S
V13     V15    10.0   .     S
V13     V16    10.0   .     S
V13     V25    10.0   .     S
V14     V16    10.0   .     S
V14     V15    10.0   .     S
V14     V28    10.0   .     S
V15     V10    10.0   1_545     S
V15     V16    10.0   .     S
V15     V27    10.0   1_556     S
V16     V6    10.0   1_455     S
V16     V26    10.0   1_556     S
V17     V18    10.0   .     S
V17     V19    10.0   .     S
V17     V20    10.0   .     S
V17     V23    10.0   1_565     S
V17     V31    10.0   1_655     S
V18     V3    10.0   1_554     S
V18     V19    10.0   .     S
V18     V20    10.0   .     S
V18     V29    10.0   1_655     S
V18     V24    10.0   .     S
V19     V2    10.0   1_554     S
V19     V20    10.0   .     S
V19     V21    10.0   1_565     S
V19     V32    10.0   .     S
V20     V22    10.0   .     S
V20     V30    10.0   .     S
V21     V7    10.0   1_554     S
V21     V19    10.0   1_545     S
V21     V22    10.0   .     S
V21     V23    10.0   .     S
V21     V24    10.0   .     S
V21     V27    10.0   .     S
V22     V24    10.0   .     S
V22     V23    10.0   .     S
V22     V28    10.0   .     S
V23     V17    10.0   1_545     S
V23     V24    10.0   .     S
V23     V25    10.0   1_655     S
V24     V6    10.0   1_554     S
V24     V26    10.0   1_655     S
V25     V23    10.0   1_455     S
V25     V26    10.0   .     S
V25     V27    10.0   .     S
V25     V28    10.0   .     S
V25     V31    10.0   1_545     S
V26     V16    10.0   1_554     S
V26     V24    10.0   1_455     S
V26     V27    10.0   .     S
V26     V28    10.0   .     S
V26     V29    10.0   .     S
V27     V15    10.0   1_554     S
V27     V28    10.0   .     S
V27     V32    10.0   1_545     S
V28     V30    10.0   .     S
V29     V11    10.0   1_554     S
V29     V18    10.0   1_455     S
V29     V30    10.0   .     S
V29     V31    10.0   .     S
V29     V32    10.0   .     S
V30     V31    10.0   .     S
V30     V32    10.0   .     S
V31     V17    10.0   1_455     S
V31     V32    10.0   .     S
V31     V25    10.0   1_565     S
V32     V10    10.0   1_554     S
V32     V27    10.0   1_565     S
