data_fsb
_audit_creation_date              2020-02-02
_audit_creation_method            'Pymatgen'
_symmetry_space_group_name_H-M    'P1'
_symmetry_Int_Tables_number       1
loop_
_symmetry_equiv_pos_as_xyz
  x,y,z
_cell_length_a                    28.8725
_cell_length_b                    28.8725
_cell_length_c                    14.902
_cell_angle_alpha                 90.0
_cell_angle_beta                 90.0
_cell_angle_gamma                 120.0
loop_
_atom_site_label
_atom_site_type_symbol
_atom_site_fract_x
_atom_site_fract_y
_atom_site_fract_z
V1     V     0.8   0.6001   0.0
V2     V     0.2   0.8   0.0
V3     V     0.3999   0.2   0.0
V4     V     0.2   0.3999   0.0
V5     V     0.8   0.2   0.0
V6     V     0.6001   0.8   0.0
Er7     Er     0.3333   0.6667   0.5
Er8     Er     0.6667   0.3333   0.5
loop_
_geom_bond_atom_site_label_1
_geom_bond_atom_site_label_2
_geom_bond_distance
_geom_bond_site_symmetry_2
_ccdc_geom_bond_type
V1     V6    10.0   .     S
V1     V2    10.0   1_655     S
V1     Er8    10.0   .     S
V1     Er8    10.0   1_554     S
V2     V1    10.0   1_455     S
V2     V3    10.0   1_565     S
V2     Er7    10.0   .     S
V2     Er7    10.0   1_554     S
V3     V4    10.0   .     S
V3     V2    10.0   1_545     S
V3     Er8    10.0   1_554     S
V3     Er8    10.0   .     S
V4     V5    10.0   1_455     S
V4     Er7    10.0   1_554     S
V4     Er7    10.0   .     S
V5     V4    10.0   1_655     S
V5     V6    10.0   1_545     S
V5     Er8    10.0   .     S
V5     Er8    10.0   1_554     S
V6     V5    10.0   1_565     S
V6     Er7    10.0   1_554     S
V6     Er7    10.0   .     S
Er7     V2    10.0   1_556     S
Er7     V6    10.0   1_556     S
Er7     V4    10.0   1_556     S
Er8     V1    10.0   1_556     S
Er8     V3    10.0   1_556     S
Er8     V5    10.0   1_556     S
