data_ftn
_audit_creation_date              2020-02-02
_audit_creation_method            'Pymatgen'
_symmetry_space_group_name_H-M    'P1'
_symmetry_Int_Tables_number       1
loop_
_symmetry_equiv_pos_as_xyz
  x,y,z
_cell_length_a                    38.671
_cell_length_b                    38.671
_cell_length_c                    41.6314
_cell_angle_alpha                 90.0
_cell_angle_beta                 90.0
_cell_angle_gamma                 90.0
loop_
_atom_site_label
_atom_site_type_symbol
_atom_site_fract_x
_atom_site_fract_y
_atom_site_fract_z
Er1     Er     0.5   0.1293   0.6651
Er2     Er     0.3707   0.0   0.8349
Er3     Er     0.6293   0.0   0.8349
Er4     Er     0.5   0.8707   0.6651
Er5     Er     0.1293   0.5   0.6651
Er6     Er     0.0   0.3707   0.8349
Er7     Er     0.0   0.6293   0.8349
Er8     Er     0.8707   0.5   0.6651
V9     V     0.5   0.6828   0.5
V10     V     0.6828   0.5   0.5
V11     V     0.3172   0.5   0.5
V12     V     0.5   0.3172   0.5
Er13     Er     0.3707   0.0   0.1651
Er14     Er     0.5   0.8707   0.3349
Er15     Er     0.6293   0.0   0.1651
Er16     Er     0.5   0.1293   0.3349
Er17     Er     0.0   0.3707   0.1651
Er18     Er     0.8707   0.5   0.3349
Er19     Er     0.0   0.6293   0.1651
Er20     Er     0.1293   0.5   0.3349
V21     V     0.8172   0.0   0.0
V22     V     0.0   0.8172   0.0
V23     V     0.0   0.1829   0.0
V24     V     0.1829   0.0   0.0
loop_
_geom_bond_atom_site_label_1
_geom_bond_atom_site_label_2
_geom_bond_distance
_geom_bond_site_symmetry_2
_ccdc_geom_bond_type
Er1     V12    10.0   .     S
Er1     Er2    10.0   .     S
Er1     Er3    10.0   .     S
Er1     Er4    10.0   1_545     S
Er2     V24    10.0   1_556     S
Er2     Er3    10.0   .     S
Er2     Er4    10.0   1_545     S
Er3     V21    10.0   1_556     S
Er3     Er4    10.0   1_545     S
Er4     V9    10.0   .     S
Er4     Er3    10.0   1_565     S
Er4     Er2    10.0   1_565     S
Er4     Er1    10.0   1_565     S
Er5     V11    10.0   .     S
Er5     Er7    10.0   .     S
Er5     Er6    10.0   .     S
Er5     Er8    10.0   1_455     S
Er6     V23    10.0   1_556     S
Er6     Er7    10.0   .     S
Er6     Er8    10.0   1_455     S
Er7     V22    10.0   1_556     S
Er7     Er8    10.0   1_455     S
Er8     V10    10.0   .     S
Er8     Er6    10.0   1_655     S
Er8     Er7    10.0   1_655     S
Er8     Er5    10.0   1_655     S
V9     V10    10.0   .     S
V9     V11    10.0   .     S
V9     Er14    10.0   .     S
V10     V12    10.0   .     S
V10     Er18    10.0   .     S
V11     V12    10.0   .     S
V11     Er20    10.0   .     S
V12     Er16    10.0   .     S
Er13     V24    10.0   .     S
Er13     Er14    10.0   1_545     S
Er13     Er16    10.0   .     S
Er13     Er15    10.0   .     S
Er14     Er13    10.0   1_565     S
Er14     Er15    10.0   1_565     S
Er14     Er16    10.0   1_565     S
Er15     Er14    10.0   1_545     S
Er15     V21    10.0   .     S
Er15     Er16    10.0   .     S
Er16     Er14    10.0   1_545     S
Er17     V23    10.0   .     S
Er17     Er18    10.0   1_455     S
Er17     Er20    10.0   .     S
Er17     Er19    10.0   .     S
Er18     Er19    10.0   1_655     S
Er18     Er17    10.0   1_655     S
Er18     Er20    10.0   1_655     S
Er19     Er18    10.0   1_455     S
Er19     V22    10.0   .     S
Er19     Er20    10.0   .     S
Er20     Er18    10.0   1_455     S
V21     Er3    10.0   1_554     S
V21     V22    10.0   1_645     S
V21     V23    10.0   1_655     S
V22     Er7    10.0   1_554     S
V22     V21    10.0   1_465     S
V22     V24    10.0   1_565     S
V23     Er6    10.0   1_554     S
V23     V21    10.0   1_455     S
V23     V24    10.0   .     S
V24     Er2    10.0   1_554     S
V24     V22    10.0   1_545     S
