data_ftq
_audit_creation_date              2020-02-02
_audit_creation_method            'Pymatgen'
_symmetry_space_group_name_H-M    'P1'
_symmetry_Int_Tables_number       1
loop_
_symmetry_equiv_pos_as_xyz
  x,y,z
_cell_length_a                    104.8527
_cell_length_b                    104.8527
_cell_length_c                    104.8527
_cell_angle_alpha                 90.0
_cell_angle_beta                 90.0
_cell_angle_gamma                 90.0
loop_
_atom_site_label
_atom_site_type_symbol
_atom_site_fract_x
_atom_site_fract_y
_atom_site_fract_z
V1     V     0.8174   0.0477   0.75
V2     V     0.75   0.0477   0.8174
V3     V     0.75   0.3174   0.9523
V4     V     0.8174   0.25   0.9523
Er5     Er     0.9523   0.1826   0.8849
Er6     Er     0.8849   0.1826   0.9523
V7     V     0.75   0.1826   0.9523
V8     V     0.9523   0.1826   0.75
Er9     Er     0.8174   0.1151   0.9523
Er10     Er     0.8174   0.0477   0.8849
Er11     Er     0.9523   0.1151   0.8174
Er12     Er     0.8849   0.0477   0.8174
V13     V     0.9523   0.3174   0.75
V14     V     0.9523   0.25   0.8174
V15     V     0.5477   0.3174   0.75
V16     V     0.5477   0.25   0.8174
Er17     Er     0.6151   0.3174   0.9523
Er18     Er     0.5477   0.3174   0.8849
Er19     Er     0.6826   0.4523   0.8849
Er20     Er     0.6826   0.3849   0.9523
V21     V     0.6826   0.25   0.9523
V22     V     0.75   0.4523   0.8174
V23     V     0.8174   0.4523   0.75
Er24     Er     0.9523   0.3174   0.6151
Er25     Er     0.8849   0.3174   0.5477
Er26     Er     0.8849   0.4523   0.6826
Er27     Er     0.9523   0.3849   0.6826
V28     V     0.9523   0.25   0.6826
Er29     Er     0.6151   0.4523   0.8174
Er30     Er     0.5477   0.3849   0.8174
Er31     Er     0.8174   0.4523   0.6151
Er32     Er     0.8174   0.3849   0.5477
V33     V     0.75   0.4523   0.6826
V34     V     0.6826   0.4523   0.75
V35     V     0.75   0.3174   0.5477
V36     V     0.8174   0.25   0.5477
V37     V     0.75   0.1826   0.5477
V38     V     0.5477   0.1826   0.75
V39     V     0.6826   0.0477   0.75
V40     V     0.75   0.0477   0.6826
Er41     Er     0.5477   0.1826   0.6151
Er42     Er     0.6151   0.1826   0.5477
Er43     Er     0.6151   0.0477   0.6826
Er44     Er     0.5477   0.1151   0.6826
Er45     Er     0.6826   0.0477   0.6151
Er46     Er     0.6826   0.1151   0.5477
V47     V     0.6826   0.25   0.5477
V48     V     0.5477   0.25   0.6826
V49     V     0.75   0.9523   0.6826
V50     V     0.5477   0.8174   0.75
V51     V     0.6826   0.9523   0.75
Er52     Er     0.6151   0.9523   0.6826
Er53     Er     0.5477   0.8849   0.6826
Er54     Er     0.6826   0.9523   0.6151
Er55     Er     0.6826   0.8849   0.5477
V56     V     0.75   0.8174   0.5477
Er57     Er     0.6151   0.8174   0.5477
Er58     Er     0.5477   0.8174   0.6151
V59     V     0.6826   0.75   0.9523
V60     V     0.75   0.6826   0.9523
V61     V     0.5477   0.75   0.8174
Er62     Er     0.6151   0.5477   0.8174
Er63     Er     0.5477   0.6151   0.8174
Er64     Er     0.6151   0.6826   0.9523
Er65     Er     0.5477   0.6826   0.8849
Er66     Er     0.6826   0.6151   0.9523
Er67     Er     0.6826   0.5477   0.8849
V68     V     0.75   0.5477   0.8174
V69     V     0.8174   0.75   0.5477
V70     V     0.9523   0.6826   0.75
V71     V     0.8174   0.5477   0.75
Er72     Er     0.8174   0.6151   0.5477
Er73     Er     0.8174   0.5477   0.6151
V74     V     0.9523   0.75   0.6826
Er75     Er     0.9523   0.6151   0.6826
Er76     Er     0.8849   0.5477   0.6826
Er77     Er     0.9523   0.6826   0.6151
Er78     Er     0.8849   0.6826   0.5477
V79     V     0.75   0.6826   0.5477
V80     V     0.75   0.5477   0.6826
V81     V     0.6826   0.5477   0.75
V82     V     0.5477   0.6826   0.75
V83     V     0.6826   0.75   0.5477
V84     V     0.5477   0.75   0.6826
V85     V     0.8174   0.75   0.9523
V86     V     0.75   0.8174   0.9523
V87     V     0.9523   0.8174   0.75
V88     V     0.9523   0.75   0.8174
Er89     Er     0.9523   0.8174   0.8849
Er90     Er     0.8849   0.8174   0.9523
Er91     Er     0.8174   0.9523   0.8849
Er92     Er     0.8174   0.8849   0.9523
Er93     Er     0.9523   0.8849   0.8174
Er94     Er     0.8849   0.9523   0.8174
V95     V     0.75   0.9523   0.8174
V96     V     0.8174   0.9523   0.75
V97     V     0.0477   0.75   0.8174
V98     V     0.0477   0.8174   0.75
V99     V     0.3174   0.5477   0.75
V100     V     0.25   0.5477   0.8174
V101     V     0.1826   0.5477   0.75
V102     V     0.1826   0.75   0.5477
V103     V     0.0477   0.75   0.6826
V104     V     0.0477   0.6826   0.75
Er105     Er     0.1826   0.5477   0.6151
Er106     Er     0.1826   0.6151   0.5477
Er107     Er     0.0477   0.6151   0.6826
Er108     Er     0.1151   0.5477   0.6826
Er109     Er     0.1151   0.6826   0.5477
Er110     Er     0.0477   0.6826   0.6151
V111     V     0.25   0.5477   0.6826
V112     V     0.25   0.6826   0.5477
V113     V     0.3174   0.75   0.5477
V114     V     0.25   0.8174   0.5477
Er115     Er     0.4523   0.6151   0.8174
Er116     Er     0.3849   0.5477   0.8174
Er117     Er     0.3174   0.6151   0.9523
Er118     Er     0.3174   0.5477   0.8849
Er119     Er     0.4523   0.6826   0.8849
Er120     Er     0.3849   0.6826   0.9523
V121     V     0.25   0.6826   0.9523
V122     V     0.4523   0.75   0.8174
V123     V     0.4523   0.8174   0.75
Er124     Er     0.4523   0.8174   0.6151
Er125     Er     0.3849   0.8174   0.5477
Er126     Er     0.3849   0.9523   0.6826
Er127     Er     0.4523   0.8849   0.6826
Er128     Er     0.3174   0.9523   0.6151
Er129     Er     0.3174   0.8849   0.5477
V130     V     0.25   0.9523   0.6826
V131     V     0.4523   0.75   0.6826
V132     V     0.4523   0.6826   0.75
V133     V     0.3174   0.75   0.9523
V134     V     0.25   0.8174   0.9523
V135     V     0.3174   0.9523   0.75
V136     V     0.25   0.9523   0.8174
Er137     Er     0.1826   0.9523   0.8849
Er138     Er     0.1826   0.8849   0.9523
V139     V     0.1826   0.9523   0.75
V140     V     0.1826   0.75   0.9523
Er141     Er     0.1151   0.8174   0.9523
Er142     Er     0.0477   0.8174   0.8849
Er143     Er     0.1151   0.9523   0.8174
Er144     Er     0.0477   0.8849   0.8174
V145     V     0.4523   0.3174   0.75
V146     V     0.4523   0.25   0.8174
V147     V     0.3174   0.4523   0.75
V148     V     0.25   0.4523   0.8174
Er149     Er     0.3849   0.4523   0.8174
Er150     Er     0.4523   0.3849   0.8174
V151     V     0.4523   0.1826   0.75
V152     V     0.1826   0.4523   0.75
Er153     Er     0.3174   0.0477   0.6151
Er154     Er     0.3174   0.1151   0.5477
Er155     Er     0.4523   0.1151   0.6826
Er156     Er     0.3849   0.0477   0.6826
Er157     Er     0.4523   0.1826   0.6151
Er158     Er     0.3849   0.1826   0.5477
V159     V     0.4523   0.25   0.6826
V160     V     0.25   0.0477   0.6826
V161     V     0.3174   0.25   0.5477
V162     V     0.25   0.3174   0.5477
Er163     Er     0.1826   0.4523   0.6151
Er164     Er     0.1826   0.3849   0.5477
Er165     Er     0.1151   0.4523   0.6826
Er166     Er     0.0477   0.3849   0.6826
Er167     Er     0.0477   0.3174   0.6151
Er168     Er     0.1151   0.3174   0.5477
V169     V     0.25   0.4523   0.6826
V170     V     0.0477   0.25   0.6826
V171     V     0.1826   0.25   0.5477
V172     V     0.25   0.1826   0.5477
V173     V     0.3174   0.0477   0.75
V174     V     0.25   0.0477   0.8174
V175     V     0.0477   0.3174   0.75
V176     V     0.0477   0.25   0.8174
V177     V     0.0477   0.1826   0.75
V178     V     0.1826   0.0477   0.75
Er179     Er     0.1151   0.0477   0.8174
Er180     Er     0.0477   0.1151   0.8174
Er181     Er     0.3849   0.3174   0.9523
Er182     Er     0.4523   0.3174   0.8849
Er183     Er     0.3174   0.3849   0.9523
Er184     Er     0.3174   0.4523   0.8849
Er185     Er     0.1826   0.1151   0.9523
Er186     Er     0.1826   0.0477   0.8849
Er187     Er     0.1151   0.1826   0.9523
Er188     Er     0.0477   0.1826   0.8849
V189     V     0.25   0.1826   0.9523
V190     V     0.1826   0.25   0.9523
V191     V     0.25   0.3174   0.9523
V192     V     0.3174   0.25   0.9523
V193     V     0.3174   0.75   0.4523
V194     V     0.25   0.8174   0.4523
V195     V     0.4523   0.75   0.3174
V196     V     0.4523   0.8174   0.25
Er197     Er     0.4523   0.8174   0.3849
Er198     Er     0.3849   0.8174   0.4523
V199     V     0.4523   0.75   0.1826
V200     V     0.1826   0.75   0.4523
Er201     Er     0.3174   0.6151   0.0477
Er202     Er     0.3174   0.5477   0.1151
Er203     Er     0.4523   0.6826   0.1151
Er204     Er     0.3849   0.6826   0.0477
Er205     Er     0.4523   0.6151   0.1826
Er206     Er     0.3849   0.5477   0.1826
V207     V     0.4523   0.6826   0.25
V208     V     0.25   0.6826   0.0477
V209     V     0.3174   0.5477   0.25
V210     V     0.25   0.5477   0.3174
Er211     Er     0.1826   0.6151   0.4523
Er212     Er     0.1826   0.5477   0.3849
Er213     Er     0.1151   0.6826   0.4523
Er214     Er     0.0477   0.6826   0.3849
Er215     Er     0.0477   0.6151   0.3174
Er216     Er     0.1151   0.5477   0.3174
V217     V     0.25   0.6826   0.4523
V218     V     0.0477   0.6826   0.25
V219     V     0.1826   0.5477   0.25
V220     V     0.25   0.5477   0.1826
V221     V     0.0477   0.75   0.3174
V222     V     0.0477   0.8174   0.25
V223     V     0.3174   0.75   0.0477
V224     V     0.25   0.8174   0.0477
Er225     Er     0.3174   0.9523   0.3849
Er226     Er     0.3174   0.8849   0.4523
Er227     Er     0.3849   0.9523   0.3174
Er228     Er     0.4523   0.8849   0.3174
Er229     Er     0.1826   0.9523   0.1151
Er230     Er     0.1826   0.8849   0.0477
Er231     Er     0.1151   0.9523   0.1826
Er232     Er     0.0477   0.8849   0.1826
V233     V     0.1826   0.9523   0.25
V234     V     0.25   0.9523   0.1826
V235     V     0.3174   0.9523   0.25
V236     V     0.25   0.9523   0.3174
V237     V     0.1826   0.75   0.0477
Er238     Er     0.0477   0.8174   0.1151
Er239     Er     0.1151   0.8174   0.0477
V240     V     0.0477   0.75   0.1826
V241     V     0.75   0.8174   0.0477
V242     V     0.8174   0.75   0.0477
V243     V     0.5477   0.75   0.1826
V244     V     0.75   0.5477   0.1826
V245     V     0.75   0.6826   0.0477
V246     V     0.6826   0.75   0.0477
Er247     Er     0.5477   0.6151   0.1826
Er248     Er     0.6151   0.5477   0.1826
Er249     Er     0.6151   0.6826   0.0477
Er250     Er     0.5477   0.6826   0.1151
Er251     Er     0.6826   0.5477   0.1151
Er252     Er     0.6826   0.6151   0.0477
V253     V     0.5477   0.6826   0.25
V254     V     0.6826   0.5477   0.25
V255     V     0.5477   0.75   0.3174
V256     V     0.5477   0.8174   0.25
V257     V     0.75   0.5477   0.3174
V258     V     0.8174   0.5477   0.25
Er259     Er     0.6151   0.8174   0.4523
Er260     Er     0.5477   0.8174   0.3849
Er261     Er     0.6151   0.9523   0.3174
Er262     Er     0.5477   0.8849   0.3174
Er263     Er     0.6826   0.8849   0.4523
Er264     Er     0.6826   0.9523   0.3849
V265     V     0.6826   0.9523   0.25
V266     V     0.75   0.8174   0.4523
V267     V     0.8174   0.75   0.4523
Er268     Er     0.8174   0.6151   0.4523
Er269     Er     0.8174   0.5477   0.3849
Er270     Er     0.9523   0.6826   0.3849
Er271     Er     0.8849   0.6826   0.4523
Er272     Er     0.9523   0.6151   0.3174
Er273     Er     0.8849   0.5477   0.3174
V274     V     0.9523   0.6826   0.25
V275     V     0.75   0.6826   0.4523
V276     V     0.6826   0.75   0.4523
V277     V     0.75   0.9523   0.3174
V278     V     0.8174   0.9523   0.25
V279     V     0.9523   0.75   0.3174
V280     V     0.9523   0.8174   0.25
V281     V     0.9523   0.75   0.1826
V282     V     0.75   0.9523   0.1826
Er283     Er     0.8849   0.9523   0.1826
Er284     Er     0.9523   0.8849   0.1826
Er285     Er     0.9523   0.8174   0.1151
Er286     Er     0.8849   0.8174   0.0477
Er287     Er     0.8174   0.9523   0.1151
Er288     Er     0.8174   0.8849   0.0477
V289     V     0.25   0.3174   0.0477
V290     V     0.3174   0.25   0.0477
V291     V     0.3174   0.0477   0.25
V292     V     0.25   0.0477   0.3174
V293     V     0.4523   0.1826   0.25
V294     V     0.4523   0.25   0.1826
V295     V     0.1826   0.4523   0.25
V296     V     0.25   0.4523   0.1826
V297     V     0.4523   0.25   0.3174
Er298     Er     0.3174   0.1151   0.4523
Er299     Er     0.3174   0.0477   0.3849
Er300     Er     0.4523   0.1151   0.3174
Er301     Er     0.3849   0.0477   0.3174
Er302     Er     0.3849   0.1826   0.4523
Er303     Er     0.4523   0.1826   0.3849
V304     V     0.3174   0.25   0.4523
V305     V     0.4523   0.3174   0.25
Er306     Er     0.3174   0.4523   0.1151
Er307     Er     0.3174   0.3849   0.0477
Er308     Er     0.4523   0.3174   0.1151
Er309     Er     0.3849   0.3174   0.0477
Er310     Er     0.3849   0.4523   0.1826
Er311     Er     0.4523   0.3849   0.1826
V312     V     0.3174   0.4523   0.25
V313     V     0.25   0.3174   0.4523
V314     V     0.25   0.4523   0.3174
Er315     Er     0.1151   0.3174   0.4523
Er316     Er     0.0477   0.3174   0.3849
Er317     Er     0.1826   0.4523   0.3849
Er318     Er     0.1826   0.3849   0.4523
Er319     Er     0.1151   0.4523   0.3174
Er320     Er     0.0477   0.3849   0.3174
V321     V     0.1826   0.25   0.4523
V322     V     0.25   0.1826   0.4523
Er323     Er     0.1826   0.0477   0.1151
Er324     Er     0.1826   0.1151   0.0477
Er325     Er     0.0477   0.1826   0.1151
Er326     Er     0.1151   0.1826   0.0477
Er327     Er     0.0477   0.1151   0.1826
Er328     Er     0.1151   0.0477   0.1826
V329     V     0.0477   0.1826   0.25
V330     V     0.25   0.0477   0.1826
V331     V     0.1826   0.25   0.0477
V332     V     0.1826   0.0477   0.25
V333     V     0.0477   0.25   0.1826
V334     V     0.25   0.1826   0.0477
V335     V     0.0477   0.3174   0.25
V336     V     0.0477   0.25   0.3174
V337     V     0.75   0.4523   0.3174
V338     V     0.8174   0.4523   0.25
V339     V     0.75   0.3174   0.4523
V340     V     0.8174   0.25   0.4523
Er341     Er     0.8174   0.3849   0.4523
Er342     Er     0.8174   0.4523   0.3849
V343     V     0.75   0.4523   0.1826
V344     V     0.75   0.1826   0.4523
Er345     Er     0.6151   0.3174   0.0477
Er346     Er     0.5477   0.3174   0.1151
Er347     Er     0.6826   0.4523   0.1151
Er348     Er     0.6826   0.3849   0.0477
Er349     Er     0.6151   0.4523   0.1826
Er350     Er     0.5477   0.3849   0.1826
V351     V     0.6826   0.4523   0.25
V352     V     0.6826   0.25   0.0477
V353     V     0.5477   0.3174   0.25
V354     V     0.5477   0.25   0.3174
Er355     Er     0.6151   0.1826   0.4523
Er356     Er     0.5477   0.1826   0.3849
Er357     Er     0.6826   0.1151   0.4523
Er358     Er     0.6826   0.0477   0.3849
Er359     Er     0.6151   0.0477   0.3174
Er360     Er     0.5477   0.1151   0.3174
V361     V     0.6826   0.25   0.4523
V362     V     0.6826   0.0477   0.25
V363     V     0.5477   0.1826   0.25
V364     V     0.5477   0.25   0.1826
V365     V     0.75   0.3174   0.0477
V366     V     0.8174   0.25   0.0477
V367     V     0.75   0.0477   0.3174
V368     V     0.8174   0.0477   0.25
V369     V     0.75   0.0477   0.1826
V370     V     0.75   0.1826   0.0477
Er371     Er     0.8174   0.1151   0.0477
Er372     Er     0.8174   0.0477   0.1151
Er373     Er     0.9523   0.3849   0.3174
Er374     Er     0.8849   0.4523   0.3174
Er375     Er     0.9523   0.3174   0.3849
Er376     Er     0.8849   0.3174   0.4523
Er377     Er     0.9523   0.1826   0.1151
Er378     Er     0.8849   0.1826   0.0477
Er379     Er     0.9523   0.1151   0.1826
Er380     Er     0.8849   0.0477   0.1826
V381     V     0.9523   0.25   0.1826
V382     V     0.9523   0.1826   0.25
V383     V     0.9523   0.25   0.3174
V384     V     0.9523   0.3174   0.25
loop_
_geom_bond_atom_site_label_1
_geom_bond_atom_site_label_2
_geom_bond_distance
_geom_bond_site_symmetry_2
_ccdc_geom_bond_type
V1     V40    10.0   .     S
V1     V2    10.0   .     S
V1     Er12    10.0   .     S
V1     V96    10.001   1_545     S
V2     V39    10.0   .     S
V2     Er10    10.0   .     S
V2     V95    10.001   1_545     S
V3     V21    10.0   .     S
V3     Er20    10.0   .     S
V3     V4    10.0   .     S
V3     V365    10.001   1_556     S
V4     V7    10.0   .     S
V4     Er6    10.0   .     S
V4     V366    10.001   1_556     S
Er5     Er6    9.999   .     S
Er5     Er11    10.0   .     S
Er5     V14    10.0   .     S
Er5     Er188    10.001   1_655     S
Er6     Er9    10.0   .     S
Er6     Er378    10.001   1_556     S
V7     V21    10.0   .     S
V7     Er9    10.0   .     S
V7     V370    10.001   1_556     S
V8     V28    10.0   .     S
V8     Er11    10.0   .     S
V8     V14    10.0   .     S
V8     V177    10.001   1_655     S
Er9     Er10    9.999   .     S
Er9     Er371    10.001   1_556     S
Er10     Er12    10.0   .     S
Er10     Er91    10.001   1_545     S
Er11     Er12    9.999   .     S
Er11     Er180    10.001   1_655     S
Er12     Er94    10.001   1_545     S
V13     V28    10.0   .     S
V13     Er27    10.0   .     S
V13     V14    10.0   .     S
V13     V175    10.001   1_655     S
V14     V176    10.001   1_655     S
V15     V48    10.0   .     S
V15     V16    10.0   .     S
V15     Er30    10.0   .     S
V15     V145    10.001   .     S
V16     V38    10.0   .     S
V16     Er18    10.0   .     S
V16     V146    10.001   .     S
Er17     Er18    9.999   .     S
Er17     V21    10.0   .     S
Er17     Er20    10.0   .     S
Er17     Er345    10.001   1_556     S
Er18     Er30    10.0   .     S
Er18     Er182    10.001   .     S
Er19     Er20    9.999   .     S
Er19     Er29    10.0   .     S
Er19     V22    10.0   .     S
Er19     Er67    10.001   .     S
Er20     Er348    10.001   1_556     S
V21     V352    10.001   1_556     S
V22     V34    10.0   .     S
V22     V23    10.0   .     S
V22     V68    10.001   .     S
V23     V33    10.0   .     S
V23     Er26    10.0   .     S
V23     V71    10.001   .     S
Er24     Er25    9.999   .     S
Er24     V28    10.0   .     S
Er24     Er27    10.0   .     S
Er24     Er167    10.001   1_655     S
Er25     V36    10.0   .     S
Er25     Er32    10.0   .     S
Er25     Er376    10.001   .     S
Er26     Er27    9.999   .     S
Er26     Er31    10.0   .     S
Er26     Er76    10.001   .     S
Er27     Er166    10.001   1_655     S
V28     V170    10.001   1_655     S
Er29     Er30    9.999   .     S
Er29     V34    10.0   .     S
Er29     Er62    10.001   .     S
Er30     Er150    10.001   .     S
Er31     Er32    9.999   .     S
Er31     V33    10.0   .     S
Er31     Er73    10.001   .     S
Er32     V35    10.0   .     S
Er32     Er341    10.001   .     S
V33     V34    10.0   .     S
V33     V80    10.001   .     S
V34     V81    10.001   .     S
V35     V47    10.0   .     S
V35     V36    10.0   .     S
V35     V339    10.001   .     S
V36     V37    10.0   .     S
V36     V340    10.001   .     S
V37     Er46    10.0   .     S
V37     V47    10.0   .     S
V37     V344    10.001   .     S
V38     Er44    10.0   .     S
V38     V48    10.0   .     S
V38     V151    10.001   .     S
V39     Er43    10.0   .     S
V39     V40    10.0   .     S
V39     V51    10.001   1_545     S
V40     Er45    10.0   .     S
V40     V49    10.001   1_545     S
Er41     Er42    9.999   .     S
Er41     Er44    10.0   .     S
Er41     V48    10.0   .     S
Er41     Er157    10.001   .     S
Er42     Er46    10.0   .     S
Er42     V47    10.0   .     S
Er42     Er355    10.001   .     S
Er43     Er44    9.999   .     S
Er43     Er45    10.0   .     S
Er43     Er52    10.001   1_545     S
Er44     Er155    10.001   .     S
Er45     Er46    9.999   .     S
Er45     Er54    10.001   1_545     S
Er46     Er357    10.001   .     S
V47     V361    10.001   .     S
V48     V159    10.001   .     S
V49     Er54    10.0   .     S
V49     V51    10.0   .     S
V49     V96    10.0   .     S
V49     V40    10.001   1_565     S
V50     V84    10.0   .     S
V50     Er53    10.0   .     S
V50     V61    10.0   .     S
V50     V123    10.001   .     S
V51     Er52    10.0   .     S
V51     V95    10.0   .     S
V51     V39    10.001   1_565     S
Er52     Er53    9.999   .     S
Er52     Er54    10.0   .     S
Er52     Er43    10.001   1_565     S
Er53     Er58    10.0   .     S
Er53     Er127    10.001   .     S
Er54     Er55    9.999   .     S
Er54     Er45    10.001   1_565     S
Er55     Er57    10.0   .     S
Er55     V56    10.0   .     S
Er55     Er263    10.001   .     S
V56     V83    10.0   .     S
V56     V69    10.0   .     S
V56     V266    10.001   .     S
Er57     Er58    9.999   .     S
Er57     V83    10.0   .     S
Er57     Er259    10.001   .     S
Er58     V84    10.0   .     S
Er58     Er124    10.001   .     S
V59     Er64    10.0   .     S
V59     V60    10.0   .     S
V59     V86    10.0   .     S
V59     V246    10.001   1_556     S
V60     Er66    10.0   .     S
V60     V85    10.0   .     S
V60     V245    10.001   1_556     S
V61     V82    10.0   .     S
V61     Er65    10.0   .     S
V61     V122    10.001   .     S
Er62     Er63    9.999   .     S
Er62     V81    10.0   .     S
Er62     Er67    10.0   .     S
Er63     V82    10.0   .     S
Er63     Er65    10.0   .     S
Er63     Er115    10.001   .     S
Er64     Er65    9.999   .     S
Er64     Er66    10.0   .     S
Er64     Er249    10.001   1_556     S
Er65     Er119    10.001   .     S
Er66     Er67    9.999   .     S
Er66     Er252    10.001   1_556     S
Er67     V68    10.0   .     S
V68     V81    10.0   .     S
V68     V71    10.0   .     S
V69     V79    10.0   .     S
V69     Er78    10.0   .     S
V69     V267    10.001   .     S
V70     Er75    10.0   .     S
V70     V74    10.0   .     S
V70     V88    10.0   .     S
V70     V104    10.001   1_655     S
V71     V80    10.0   .     S
V71     Er76    10.0   .     S
Er72     Er73    9.999   .     S
Er72     V79    10.0   .     S
Er72     Er78    10.0   .     S
Er72     Er268    10.001   .     S
Er73     V80    10.0   .     S
Er73     Er76    10.0   .     S
V74     Er77    10.0   .     S
V74     V87    10.0   .     S
V74     V103    10.001   1_655     S
Er75     Er76    9.999   .     S
Er75     Er77    10.0   .     S
Er75     Er107    10.001   1_655     S
Er77     Er78    9.999   .     S
Er77     Er110    10.001   1_655     S
Er78     Er271    10.001   .     S
V79     V83    10.0   .     S
V79     V275    10.001   .     S
V80     V81    10.0   .     S
V82     V84    10.0   .     S
V82     V132    10.001   .     S
V83     V276    10.001   .     S
V84     V131    10.001   .     S
V85     V86    10.0   .     S
V85     Er90    10.0   .     S
V85     V242    10.001   1_556     S
V86     Er92    10.0   .     S
V86     V241    10.001   1_556     S
V87     V88    10.0   .     S
V87     Er93    10.0   .     S
V87     V98    10.001   1_655     S
V88     Er89    10.0   .     S
V88     V97    10.001   1_655     S
Er89     Er90    9.999   .     S
Er89     Er93    10.0   .     S
Er89     Er142    10.001   1_655     S
Er90     Er92    10.0   .     S
Er90     Er286    10.001   1_556     S
Er91     Er92    9.999   .     S
Er91     V95    10.0   .     S
Er91     Er94    10.0   .     S
Er91     Er10    10.001   1_565     S
Er92     Er288    10.001   1_556     S
Er93     Er94    9.999   .     S
Er93     Er144    10.001   1_655     S
Er94     V96    10.0   .     S
Er94     Er12    10.001   1_565     S
V95     V96    10.0   .     S
V95     V2    10.001   1_565     S
V96     V1    10.001   1_565     S
V97     V88    10.001   1_455     S
V97     V104    10.0   .     S
V97     V98    10.0   .     S
V97     Er142    10.0   .     S
V98     V87    10.001   1_455     S
V98     V103    10.0   .     S
V98     Er144    10.0   .     S
V99     V111    10.0   .     S
V99     V100    10.0   .     S
V99     Er116    10.0   .     S
V99     V147    10.001   .     S
V100     V101    10.0   .     S
V100     Er118    10.0   .     S
V100     V148    10.001   .     S
V101     Er108    10.0   .     S
V101     V111    10.0   .     S
V101     V152    10.001   .     S
V102     Er109    10.0   .     S
V102     V112    10.0   .     S
V102     V114    10.0   .     S
V102     V200    10.001   .     S
V103     V74    10.001   1_455     S
V103     Er110    10.0   .     S
V103     V104    10.0   .     S
V104     V70    10.001   1_455     S
V104     Er107    10.0   .     S
Er105     Er106    9.999   .     S
Er105     Er108    10.0   .     S
Er105     V111    10.0   .     S
Er105     Er163    10.001   .     S
Er106     Er109    10.0   .     S
Er106     V112    10.0   .     S
Er106     Er211    10.001   .     S
Er107     Er75    10.001   1_455     S
Er107     Er108    9.999   .     S
Er107     Er110    10.0   .     S
Er108     Er165    10.001   .     S
Er109     Er110    9.999   .     S
Er109     Er213    10.001   .     S
Er110     Er77    10.001   1_455     S
V111     V169    10.001   .     S
V112     V113    10.0   .     S
V112     V217    10.001   .     S
V113     V114    10.0   .     S
V113     Er125    10.0   .     S
V113     V193    10.001   .     S
V114     Er129    10.0   .     S
V114     V194    10.001   .     S
Er115     Er116    9.999   .     S
Er115     V132    10.0   .     S
Er115     Er119    10.0   .     S
Er116     Er118    10.0   .     S
Er116     Er149    10.001   .     S
Er117     Er118    9.999   .     S
Er117     V121    10.0   .     S
Er117     Er120    10.0   .     S
Er117     Er201    10.001   1_556     S
Er118     Er184    10.001   .     S
Er119     Er120    9.999   .     S
Er119     V122    10.0   .     S
Er120     V133    10.0   .     S
Er120     Er204    10.001   1_556     S
V121     V133    10.0   .     S
V121     V140    10.0   .     S
V121     V208    10.001   1_556     S
V122     V132    10.0   .     S
V122     V123    10.0   .     S
V123     V131    10.0   .     S
V123     Er127    10.0   .     S
Er124     Er125    9.999   .     S
Er124     V131    10.0   .     S
Er124     Er127    10.0   .     S
Er125     Er129    10.0   .     S
Er125     Er198    10.001   .     S
Er126     Er127    9.999   .     S
Er126     Er128    10.0   .     S
Er126     V135    10.0   .     S
Er126     Er156    10.001   1_565     S
Er128     Er129    9.999   .     S
Er128     V130    10.0   .     S
Er128     Er153    10.001   1_565     S
Er129     Er226    10.001   .     S
V130     V135    10.0   .     S
V130     V139    10.0   .     S
V130     V160    10.001   1_565     S
V131     V132    10.0   .     S
V133     V134    10.0   .     S
V133     V223    10.001   1_556     S
V134     V140    10.0   .     S
V134     Er138    10.0   .     S
V134     V224    10.001   1_556     S
V135     V136    10.0   .     S
V135     V173    10.001   1_565     S
V136     V139    10.0   .     S
V136     Er137    10.0   .     S
V136     V174    10.001   1_565     S
Er137     Er138    9.999   .     S
Er137     Er143    10.0   .     S
Er137     Er186    10.001   1_565     S
Er138     Er141    10.0   .     S
Er138     Er230    10.001   1_556     S
V139     Er143    10.0   .     S
V139     V178    10.001   1_565     S
V140     Er141    10.0   .     S
V140     V237    10.001   1_556     S
Er141     Er142    9.999   .     S
Er141     Er239    10.001   1_556     S
Er142     Er89    10.001   1_455     S
Er142     Er144    10.0   .     S
Er143     Er144    9.999   .     S
Er143     Er179    10.001   1_565     S
Er144     Er93    10.001   1_455     S
V145     V159    10.0   .     S
V145     V146    10.0   .     S
V145     Er150    10.0   .     S
V146     V151    10.0   .     S
V146     Er182    10.0   .     S
V147     V169    10.0   .     S
V147     V148    10.0   .     S
V147     Er149    10.0   .     S
V148     V152    10.0   .     S
V148     Er184    10.0   .     S
Er149     Er150    9.999   .     S
Er149     Er184    10.0   .     S
Er150     Er182    10.0   .     S
V151     Er155    10.0   .     S
V151     V159    10.0   .     S
V152     Er165    10.0   .     S
V152     V169    10.0   .     S
Er153     Er128    10.001   1_545     S
Er153     Er154    9.999   .     S
Er153     V160    10.0   .     S
Er153     Er156    10.0   .     S
Er154     V172    10.0   .     S
Er154     Er158    10.0   .     S
Er154     Er298    10.001   .     S
Er155     Er156    9.999   .     S
Er155     Er157    10.0   .     S
Er156     Er126    10.001   1_545     S
Er156     V173    10.0   .     S
Er157     Er158    9.999   .     S
Er157     V159    10.0   .     S
Er158     V161    10.0   .     S
Er158     Er302    10.001   .     S
V160     V130    10.001   1_545     S
V160     V173    10.0   .     S
V160     V178    10.0   .     S
V161     V172    10.0   .     S
V161     V162    10.0   .     S
V161     V304    10.001   .     S
V162     V171    10.0   .     S
V162     Er164    10.0   .     S
V162     V313    10.001   .     S
Er163     Er164    9.999   .     S
Er163     Er165    10.0   .     S
Er163     V169    10.0   .     S
Er164     Er168    10.0   .     S
Er164     Er318    10.001   .     S
Er165     Er166    9.999   .     S
Er166     Er27    10.001   1_455     S
Er166     Er167    10.0   .     S
Er166     V175    10.0   .     S
Er167     Er24    10.001   1_455     S
Er167     Er168    9.999   .     S
Er167     V170    10.0   .     S
Er168     V171    10.0   .     S
Er168     Er315    10.001   .     S
V170     V28    10.001   1_455     S
V170     V175    10.0   .     S
V170     V177    10.0   .     S
V171     V172    10.0   .     S
V171     V321    10.001   .     S
V172     V322    10.001   .     S
V173     V135    10.001   1_545     S
V173     V174    10.0   .     S
V174     V136    10.001   1_545     S
V174     V178    10.0   .     S
V174     Er186    10.0   .     S
V175     V13    10.001   1_455     S
V175     V176    10.0   .     S
V176     V14    10.001   1_455     S
V176     V177    10.0   .     S
V176     Er188    10.0   .     S
V177     V8    10.001   1_455     S
V177     Er180    10.0   .     S
V178     V139    10.001   1_545     S
V178     Er179    10.0   .     S
Er179     Er143    10.001   1_545     S
Er179     Er180    9.999   .     S
Er179     Er186    10.0   .     S
Er180     Er11    10.001   1_455     S
Er180     Er188    10.0   .     S
Er181     Er182    9.999   .     S
Er181     V192    10.0   .     S
Er181     Er183    10.0   .     S
Er181     Er309    10.001   1_556     S
Er183     Er184    9.999   .     S
Er183     V191    10.0   .     S
Er183     Er307    10.001   1_556     S
Er185     Er186    9.999   .     S
Er185     Er187    10.0   .     S
Er185     V189    10.0   .     S
Er185     Er324    10.001   1_556     S
Er186     Er137    10.001   1_545     S
Er187     Er188    9.999   .     S
Er187     V190    10.0   .     S
Er187     Er326    10.001   1_556     S
Er188     Er5    10.001   1_455     S
V189     V190    10.0   .     S
V189     V192    10.0   .     S
V189     V334    10.001   1_556     S
V190     V191    10.0   .     S
V190     V331    10.001   1_556     S
V191     V192    10.0   .     S
V191     V289    10.001   1_556     S
V192     V290    10.001   1_556     S
V193     V217    10.0   .     S
V193     V194    10.0   .     S
V193     Er198    10.0   .     S
V194     V200    10.0   .     S
V194     Er226    10.0   .     S
V195     V207    10.0   .     S
V195     V196    10.0   .     S
V195     Er197    10.0   .     S
V195     V255    10.001   .     S
V196     V199    10.0   .     S
V196     Er228    10.0   .     S
V196     V256    10.001   .     S
Er197     Er198    9.999   .     S
Er197     Er228    10.0   .     S
Er197     Er260    10.001   .     S
Er198     Er226    10.0   .     S
V199     Er203    10.0   .     S
V199     V207    10.0   .     S
V199     V243    10.001   .     S
V200     Er213    10.0   .     S
V200     V217    10.0   .     S
Er201     Er117    10.001   1_554     S
Er201     Er202    9.999   .     S
Er201     V208    10.0   .     S
Er201     Er204    10.0   .     S
Er202     V220    10.0   .     S
Er202     Er206    10.0   .     S
Er202     Er306    10.001   .     S
Er203     Er204    9.999   .     S
Er203     Er205    10.0   .     S
Er203     Er250    10.001   .     S
Er204     Er120    10.001   1_554     S
Er204     V223    10.0   .     S
Er205     Er206    9.999   .     S
Er205     V207    10.0   .     S
Er205     Er247    10.001   .     S
Er206     V209    10.0   .     S
Er206     Er310    10.001   .     S
V207     V253    10.001   .     S
V208     V121    10.001   1_554     S
V208     V223    10.0   .     S
V208     V237    10.0   .     S
V209     V220    10.0   .     S
V209     V210    10.0   .     S
V209     V312    10.001   .     S
V210     V219    10.0   .     S
V210     Er212    10.0   .     S
V210     V314    10.001   .     S
Er211     Er212    9.999   .     S
Er211     Er213    10.0   .     S
Er211     V217    10.0   .     S
Er212     Er216    10.0   .     S
Er212     Er317    10.001   .     S
Er213     Er214    9.999   .     S
Er214     Er215    10.0   .     S
Er214     V221    10.0   .     S
Er214     Er270    10.001   1_455     S
Er215     Er216    9.999   .     S
Er215     V218    10.0   .     S
Er215     Er272    10.001   1_455     S
Er216     V219    10.0   .     S
Er216     Er319    10.001   .     S
V218     V221    10.0   .     S
V218     V240    10.0   .     S
V218     V274    10.001   1_455     S
V219     V220    10.0   .     S
V219     V295    10.001   .     S
V220     V296    10.001   .     S
V221     V222    10.0   .     S
V221     V279    10.001   1_455     S
V222     V240    10.0   .     S
V222     Er232    10.0   .     S
V222     V280    10.001   1_455     S
V223     V133    10.001   1_554     S
V223     V224    10.0   .     S
V224     V134    10.001   1_554     S
V224     V237    10.0   .     S
V224     Er230    10.0   .     S
Er225     Er226    9.999   .     S
Er225     V236    10.0   .     S
Er225     Er227    10.0   .     S
Er225     Er299    10.001   1_565     S
Er227     Er228    9.999   .     S
Er227     V235    10.0   .     S
Er227     Er301    10.001   1_565     S
Er228     Er262    10.001   .     S
Er229     Er230    9.999   .     S
Er229     Er231    10.0   .     S
Er229     V234    10.0   .     S
Er229     Er323    10.001   1_565     S
Er230     Er138    10.001   1_554     S
Er230     Er239    10.0   .     S
Er231     Er232    9.999   .     S
Er231     V233    10.0   .     S
Er231     Er328    10.001   1_565     S
Er232     Er238    10.0   .     S
Er232     Er284    10.001   1_455     S
V233     V234    10.0   .     S
V233     V236    10.0   .     S
V233     V332    10.001   1_565     S
V234     V235    10.0   .     S
V234     V330    10.001   1_565     S
V235     V236    10.0   .     S
V235     V291    10.001   1_565     S
V236     V292    10.001   1_565     S
V237     V140    10.001   1_554     S
V237     Er239    10.0   .     S
Er238     Er239    9.999   .     S
Er238     V240    10.0   .     S
Er238     Er285    10.001   1_455     S
Er239     Er141    10.001   1_554     S
V240     V281    10.001   1_455     S
V241     V86    10.001   1_554     S
V241     V246    10.0   .     S
V241     V242    10.0   .     S
V241     Er288    10.0   .     S
V242     V85    10.001   1_554     S
V242     V245    10.0   .     S
V242     Er286    10.0   .     S
V243     Er250    10.0   .     S
V243     V253    10.0   .     S
V243     V256    10.0   .     S
V244     Er251    10.0   .     S
V244     V254    10.0   .     S
V244     V258    10.0   .     S
V244     V343    10.001   .     S
V245     V60    10.001   1_554     S
V245     Er252    10.0   .     S
V245     V246    10.0   .     S
V246     V59    10.001   1_554     S
V246     Er249    10.0   .     S
Er247     Er248    9.999   .     S
Er247     Er250    10.0   .     S
Er247     V253    10.0   .     S
Er248     Er251    10.0   .     S
Er248     V254    10.0   .     S
Er248     Er349    10.001   .     S
Er249     Er64    10.001   1_554     S
Er249     Er250    9.999   .     S
Er249     Er252    10.0   .     S
Er251     Er252    9.999   .     S
Er251     Er347    10.001   .     S
Er252     Er66    10.001   1_554     S
V253     V255    10.0   .     S
V254     V257    10.0   .     S
V254     V351    10.001   .     S
V255     V256    10.0   .     S
V255     Er260    10.0   .     S
V256     Er262    10.0   .     S
V257     V258    10.0   .     S
V257     Er269    10.0   .     S
V257     V337    10.001   .     S
V258     Er273    10.0   .     S
V258     V338    10.001   .     S
Er259     Er260    9.999   .     S
Er259     V276    10.0   .     S
Er259     Er263    10.0   .     S
Er260     Er262    10.0   .     S
Er261     Er262    9.999   .     S
Er261     V265    10.0   .     S
Er261     Er264    10.0   .     S
Er261     Er359    10.001   1_565     S
Er263     Er264    9.999   .     S
Er263     V266    10.0   .     S
Er264     V277    10.0   .     S
Er264     Er358    10.001   1_565     S
V265     V277    10.0   .     S
V265     V282    10.0   .     S
V265     V362    10.001   1_565     S
V266     V276    10.0   .     S
V266     V267    10.0   .     S
V267     V275    10.0   .     S
V267     Er271    10.0   .     S
Er268     Er269    9.999   .     S
Er268     V275    10.0   .     S
Er268     Er271    10.0   .     S
Er269     Er273    10.0   .     S
Er269     Er342    10.001   .     S
Er270     Er271    9.999   .     S
Er270     Er272    10.0   .     S
Er270     V279    10.0   .     S
Er270     Er214    10.001   1_655     S
Er272     Er273    9.999   .     S
Er272     V274    10.0   .     S
Er272     Er215    10.001   1_655     S
Er273     Er374    10.001   .     S
V274     V279    10.0   .     S
V274     V281    10.0   .     S
V274     V218    10.001   1_655     S
V275     V276    10.0   .     S
V277     V278    10.0   .     S
V277     V367    10.001   1_565     S
V278     V282    10.0   .     S
V278     Er283    10.0   .     S
V278     V368    10.001   1_565     S
V279     V280    10.0   .     S
V279     V221    10.001   1_655     S
V280     V281    10.0   .     S
V280     Er284    10.0   .     S
V280     V222    10.001   1_655     S
V281     Er285    10.0   .     S
V281     V240    10.001   1_655     S
V282     Er287    10.0   .     S
V282     V369    10.001   1_565     S
Er283     Er284    9.999   .     S
Er283     Er287    10.0   .     S
Er283     Er380    10.001   1_565     S
Er284     Er285    10.0   .     S
Er284     Er232    10.001   1_655     S
Er285     Er286    9.999   .     S
Er285     Er238    10.001   1_655     S
Er286     Er90    10.001   1_554     S
Er286     Er288    10.0   .     S
Er287     Er288    9.999   .     S
Er287     Er372    10.001   1_565     S
Er288     Er92    10.001   1_554     S
V289     V191    10.001   1_554     S
V289     V331    10.0   .     S
V289     V290    10.0   .     S
V289     Er307    10.0   .     S
V290     V192    10.001   1_554     S
V290     V334    10.0   .     S
V290     Er309    10.0   .     S
V291     V235    10.001   1_545     S
V291     V330    10.0   .     S
V291     V292    10.0   .     S
V291     Er301    10.0   .     S
V292     V236    10.001   1_545     S
V292     V332    10.0   .     S
V292     Er299    10.0   .     S
V293     V294    10.0   .     S
V293     V297    10.0   .     S
V293     Er300    10.0   .     S
V293     V363    10.001   .     S
V294     V305    10.0   .     S
V294     Er308    10.0   .     S
V294     V364    10.001   .     S
V295     V296    10.0   .     S
V295     V314    10.0   .     S
V295     Er319    10.0   .     S
V296     Er306    10.0   .     S
V296     V312    10.0   .     S
V297     Er303    10.0   .     S
V297     V305    10.0   .     S
V297     V354    10.001   .     S
Er298     Er299    9.999   .     S
Er298     V322    10.0   .     S
Er298     Er302    10.0   .     S
Er299     Er225    10.001   1_545     S
Er299     Er301    10.0   .     S
Er300     Er301    9.999   .     S
Er300     Er303    10.0   .     S
Er300     Er360    10.001   .     S
Er301     Er227    10.001   1_545     S
Er302     Er303    9.999   .     S
Er302     V304    10.0   .     S
Er303     Er356    10.001   .     S
V304     V322    10.0   .     S
V304     V313    10.0   .     S
V305     Er311    10.0   .     S
V305     V353    10.001   .     S
Er306     Er307    9.999   .     S
Er306     Er310    10.0   .     S
Er307     Er183    10.001   1_554     S
Er307     Er309    10.0   .     S
Er308     Er309    9.999   .     S
Er308     Er311    10.0   .     S
Er308     Er346    10.001   .     S
Er309     Er181    10.001   1_554     S
Er310     Er311    9.999   .     S
Er310     V312    10.0   .     S
Er311     Er350    10.001   .     S
V312     V314    10.0   .     S
V313     V321    10.0   .     S
V313     Er318    10.0   .     S
V314     Er317    10.0   .     S
Er315     Er316    9.999   .     S
Er315     V321    10.0   .     S
Er315     Er318    10.0   .     S
Er316     V336    10.0   .     S
Er316     Er320    10.0   .     S
Er316     Er375    10.001   1_455     S
Er317     Er318    9.999   .     S
Er317     Er319    10.0   .     S
Er319     Er320    9.999   .     S
Er320     V335    10.0   .     S
Er320     Er373    10.001   1_455     S
V321     V322    10.0   .     S
Er323     Er229    10.001   1_545     S
Er323     Er324    9.999   .     S
Er323     Er328    10.0   .     S
Er323     V330    10.0   .     S
Er324     Er185    10.001   1_554     S
Er324     Er326    10.0   .     S
Er324     V334    10.0   .     S
Er325     Er326    9.999   .     S
Er325     Er327    10.0   .     S
Er325     V333    10.0   .     S
Er325     Er377    10.001   1_455     S
Er326     Er187    10.001   1_554     S
Er326     V331    10.0   .     S
Er327     Er328    9.999   .     S
Er327     V329    10.0   .     S
Er327     Er379    10.001   1_455     S
Er328     Er231    10.001   1_545     S
Er328     V332    10.0   .     S
V329     V333    10.0   .     S
V329     V336    10.0   .     S
V329     V382    10.001   1_455     S
V330     V234    10.001   1_545     S
V330     V332    10.0   .     S
V331     V190    10.001   1_554     S
V331     V334    10.0   .     S
V332     V233    10.001   1_545     S
V333     V335    10.0   .     S
V333     V381    10.001   1_455     S
V334     V189    10.001   1_554     S
V335     V336    10.0   .     S
V335     V384    10.001   1_455     S
V336     V383    10.001   1_455     S
V337     V351    10.0   .     S
V337     V338    10.0   .     S
V337     Er342    10.0   .     S
V338     V343    10.0   .     S
V338     Er374    10.0   .     S
V339     V361    10.0   .     S
V339     V340    10.0   .     S
V339     Er341    10.0   .     S
V340     V344    10.0   .     S
V340     Er376    10.0   .     S
Er341     Er342    9.999   .     S
Er341     Er376    10.0   .     S
Er342     Er374    10.0   .     S
V343     Er347    10.0   .     S
V343     V351    10.0   .     S
V344     Er357    10.0   .     S
V344     V361    10.0   .     S
Er345     Er17    10.001   1_554     S
Er345     Er346    9.999   .     S
Er345     V352    10.0   .     S
Er345     Er348    10.0   .     S
Er346     V364    10.0   .     S
Er346     Er350    10.0   .     S
Er347     Er348    9.999   .     S
Er347     Er349    10.0   .     S
Er348     Er20    10.001   1_554     S
Er348     V365    10.0   .     S
Er349     Er350    9.999   .     S
Er349     V351    10.0   .     S
Er350     V353    10.0   .     S
V352     V21    10.001   1_554     S
V352     V365    10.0   .     S
V352     V370    10.0   .     S
V353     V364    10.0   .     S
V353     V354    10.0   .     S
V354     V363    10.0   .     S
V354     Er356    10.0   .     S
Er355     Er356    9.999   .     S
Er355     Er357    10.0   .     S
Er355     V361    10.0   .     S
Er356     Er360    10.0   .     S
Er357     Er358    9.999   .     S
Er358     Er264    10.001   1_545     S
Er358     Er359    10.0   .     S
Er358     V367    10.0   .     S
Er359     Er261    10.001   1_545     S
Er359     Er360    9.999   .     S
Er359     V362    10.0   .     S
Er360     V363    10.0   .     S
V362     V265    10.001   1_545     S
V362     V367    10.0   .     S
V362     V369    10.0   .     S
V363     V364    10.0   .     S
V365     V3    10.001   1_554     S
V365     V366    10.0   .     S
V366     V4    10.001   1_554     S
V366     V370    10.0   .     S
V366     Er378    10.0   .     S
V367     V277    10.001   1_545     S
V367     V368    10.0   .     S
V368     V278    10.001   1_545     S
V368     V369    10.0   .     S
V368     Er380    10.0   .     S
V369     V282    10.001   1_545     S
V369     Er372    10.0   .     S
V370     V7    10.001   1_554     S
V370     Er371    10.0   .     S
Er371     Er9    10.001   1_554     S
Er371     Er372    9.999   .     S
Er371     Er378    10.0   .     S
Er372     Er287    10.001   1_545     S
Er372     Er380    10.0   .     S
Er373     Er374    9.999   .     S
Er373     V384    10.0   .     S
Er373     Er375    10.0   .     S
Er373     Er320    10.001   1_655     S
Er375     Er376    9.999   .     S
Er375     V383    10.0   .     S
Er375     Er316    10.001   1_655     S
Er377     Er378    9.999   .     S
Er377     Er379    10.0   .     S
Er377     V381    10.0   .     S
Er377     Er325    10.001   1_655     S
Er378     Er6    10.001   1_554     S
Er379     Er380    9.999   .     S
Er379     V382    10.0   .     S
Er379     Er327    10.001   1_655     S
Er380     Er283    10.001   1_545     S
V381     V382    10.0   .     S
V381     V384    10.0   .     S
V381     V333    10.001   1_655     S
V382     V383    10.0   .     S
V382     V329    10.001   1_655     S
V383     V384    10.0   .     S
V383     V336    10.001   1_655     S
V384     V335    10.001   1_655     S
