data_ftt
_audit_creation_date              2020-02-02
_audit_creation_method            'Pymatgen'
_symmetry_space_group_name_H-M    'P1'
_symmetry_Int_Tables_number       1
loop_
_symmetry_equiv_pos_as_xyz
  x,y,z
_cell_length_a                    101.0634
_cell_length_b                    101.0634
_cell_length_c                    101.0634
_cell_angle_alpha                 90.0
_cell_angle_beta                 90.0
_cell_angle_gamma                 90.0
loop_
_atom_site_label
_atom_site_type_symbol
_atom_site_fract_x
_atom_site_fract_y
_atom_site_fract_z
Er1     Er     0.5495   0.215   0.215
Er2     Er     0.5495   0.285   0.285
Er3     Er     0.4505   0.215   0.215
Er4     Er     0.4505   0.285   0.285
Er5     Er     0.215   0.215   0.5495
Er6     Er     0.285   0.285   0.5495
Er7     Er     0.215   0.215   0.4505
Er8     Er     0.285   0.285   0.4505
Er9     Er     0.215   0.4505   0.215
Er10     Er     0.285   0.4505   0.285
Er11     Er     0.215   0.5495   0.215
Er12     Er     0.285   0.5495   0.285
Er13     Er     0.215   0.285   0.0495
Er14     Er     0.285   0.215   0.0495
Er15     Er     0.215   0.285   0.9505
Er16     Er     0.285   0.215   0.9505
Er17     Er     0.285   0.0495   0.215
Er18     Er     0.215   0.0495   0.285
Er19     Er     0.215   0.9505   0.285
Er20     Er     0.285   0.9505   0.215
Er21     Er     0.0495   0.215   0.285
Er22     Er     0.0495   0.285   0.215
Er23     Er     0.9505   0.215   0.285
Er24     Er     0.9505   0.285   0.215
Er25     Er     0.4505   0.785   0.215
Er26     Er     0.4505   0.715   0.285
Er27     Er     0.5495   0.785   0.215
Er28     Er     0.5495   0.715   0.285
Er29     Er     0.4505   0.215   0.785
Er30     Er     0.4505   0.285   0.715
Er31     Er     0.5495   0.215   0.785
Er32     Er     0.5495   0.285   0.715
Er33     Er     0.715   0.285   0.5495
Er34     Er     0.785   0.215   0.5495
Er35     Er     0.715   0.285   0.4505
Er36     Er     0.785   0.215   0.4505
Er37     Er     0.215   0.785   0.4505
Er38     Er     0.285   0.715   0.4505
Er39     Er     0.215   0.785   0.5495
Er40     Er     0.285   0.715   0.5495
Er41     Er     0.785   0.5495   0.215
Er42     Er     0.715   0.5495   0.285
Er43     Er     0.785   0.4505   0.215
Er44     Er     0.715   0.4505   0.285
Er45     Er     0.215   0.5495   0.785
Er46     Er     0.285   0.5495   0.715
Er47     Er     0.215   0.4505   0.785
Er48     Er     0.285   0.4505   0.715
Er49     Er     0.715   0.215   0.0495
Er50     Er     0.785   0.285   0.0495
Er51     Er     0.785   0.285   0.9505
Er52     Er     0.715   0.215   0.9505
Er53     Er     0.285   0.785   0.0495
Er54     Er     0.215   0.715   0.0495
Er55     Er     0.215   0.715   0.9505
Er56     Er     0.285   0.785   0.9505
Er57     Er     0.0495   0.285   0.785
Er58     Er     0.0495   0.215   0.715
Er59     Er     0.9505   0.215   0.715
Er60     Er     0.9505   0.285   0.785
Er61     Er     0.215   0.0495   0.715
Er62     Er     0.285   0.0495   0.785
Er63     Er     0.215   0.9505   0.715
Er64     Er     0.285   0.9505   0.785
Er65     Er     0.0495   0.715   0.215
Er66     Er     0.0495   0.785   0.285
Er67     Er     0.9505   0.785   0.285
Er68     Er     0.9505   0.715   0.215
Er69     Er     0.785   0.0495   0.285
Er70     Er     0.715   0.0495   0.215
Er71     Er     0.785   0.9505   0.285
Er72     Er     0.715   0.9505   0.215
V73     V     0.5495   0.6194   0.3106
V74     V     0.4505   0.6194   0.3106
V75     V     0.4505   0.6894   0.3806
V76     V     0.5495   0.6894   0.3806
V77     V     0.3106   0.5495   0.6194
V78     V     0.3106   0.4505   0.6194
V79     V     0.3806   0.5495   0.6894
V80     V     0.3806   0.4505   0.6894
V81     V     0.3106   0.6194   0.4505
V82     V     0.3106   0.6194   0.5495
V83     V     0.3806   0.6894   0.4505
V84     V     0.3806   0.6894   0.5495
V85     V     0.3806   0.4505   0.3106
V86     V     0.3806   0.5495   0.3106
V87     V     0.3106   0.4505   0.3806
V88     V     0.3106   0.5495   0.3806
V89     V     0.3106   0.3806   0.4505
V90     V     0.3106   0.3806   0.5495
V91     V     0.3806   0.3106   0.5495
V92     V     0.3806   0.3106   0.4505
V93     V     0.5495   0.3106   0.6194
V94     V     0.4505   0.3106   0.6194
V95     V     0.4505   0.3806   0.6894
V96     V     0.5495   0.3806   0.6894
V97     V     0.5495   0.3806   0.3106
V98     V     0.4505   0.3806   0.3106
V99     V     0.5495   0.3106   0.3806
V100     V     0.4505   0.3106   0.3806
V101     V     0.5495   0.6194   0.6894
V102     V     0.4505   0.6194   0.6894
V103     V     0.5495   0.6894   0.6194
V104     V     0.4505   0.6894   0.6194
V105     V     0.6194   0.6894   0.5495
V106     V     0.6194   0.6894   0.4505
V107     V     0.6894   0.6194   0.4505
V108     V     0.6894   0.6194   0.5495
V109     V     0.6194   0.4505   0.3106
V110     V     0.6194   0.5495   0.3106
V111     V     0.6894   0.4505   0.3806
V112     V     0.6894   0.5495   0.3806
V113     V     0.6194   0.3106   0.5495
V114     V     0.6194   0.3106   0.4505
V115     V     0.6894   0.3806   0.5495
V116     V     0.6894   0.3806   0.4505
V117     V     0.6194   0.4505   0.6894
V118     V     0.6194   0.5495   0.6894
V119     V     0.6894   0.4505   0.6194
V120     V     0.6894   0.5495   0.6194
Er121     Er     0.785   0.4505   0.785
Er122     Er     0.715   0.4505   0.715
Er123     Er     0.785   0.5495   0.785
Er124     Er     0.715   0.5495   0.715
V125     V     0.1894   0.5495   0.1194
V126     V     0.1894   0.4505   0.1194
V127     V     0.1194   0.4505   0.1894
V128     V     0.1194   0.5495   0.1894
V129     V     0.1194   0.3106   0.9505
V130     V     0.1194   0.3106   0.0495
V131     V     0.1894   0.3806   0.9505
V132     V     0.1894   0.3806   0.0495
V133     V     0.1894   0.5495   0.8806
V134     V     0.1894   0.4505   0.8806
V135     V     0.1194   0.5495   0.8106
V136     V     0.1194   0.4505   0.8106
V137     V     0.1894   0.6194   0.9505
V138     V     0.1894   0.6194   0.0495
V139     V     0.1194   0.6894   0.9505
V140     V     0.1194   0.6894   0.0495
V141     V     0.8806   0.3106   0.9505
V142     V     0.8806   0.3106   0.0495
V143     V     0.8106   0.3806   0.9505
V144     V     0.8106   0.3806   0.0495
V145     V     0.9505   0.3106   0.8806
V146     V     0.0495   0.3106   0.8806
V147     V     0.9505   0.3806   0.8106
V148     V     0.0495   0.3806   0.8106
V149     V     0.8106   0.5495   0.8806
V150     V     0.8106   0.4505   0.8806
V151     V     0.8806   0.5495   0.8106
V152     V     0.8806   0.4505   0.8106
V153     V     0.8806   0.6894   0.9505
V154     V     0.8806   0.6894   0.0495
V155     V     0.8106   0.6194   0.9505
V156     V     0.8106   0.6194   0.0495
V157     V     0.9505   0.6894   0.8806
V158     V     0.0495   0.6894   0.8806
V159     V     0.9505   0.6194   0.8106
V160     V     0.0495   0.6194   0.8106
V161     V     0.9505   0.6194   0.1894
V162     V     0.0495   0.6194   0.1894
V163     V     0.9505   0.6894   0.1194
V164     V     0.0495   0.6894   0.1194
V165     V     0.8806   0.4505   0.1894
V166     V     0.8806   0.5495   0.1894
V167     V     0.8106   0.4505   0.1194
V168     V     0.8106   0.5495   0.1194
V169     V     0.9505   0.3106   0.1194
V170     V     0.0495   0.3106   0.1194
V171     V     0.9505   0.3806   0.1894
V172     V     0.0495   0.3806   0.1894
Er173     Er     0.5495   0.785   0.785
Er174     Er     0.5495   0.715   0.715
Er175     Er     0.4505   0.785   0.785
Er176     Er     0.4505   0.715   0.715
Er177     Er     0.785   0.715   0.0495
Er178     Er     0.715   0.785   0.0495
Er179     Er     0.715   0.785   0.9505
Er180     Er     0.785   0.715   0.9505
V181     V     0.4505   0.1894   0.1194
V182     V     0.5495   0.1894   0.1194
V183     V     0.5495   0.1194   0.1894
V184     V     0.4505   0.1194   0.1894
V185     V     0.6194   0.1894   0.9505
V186     V     0.6194   0.1894   0.0495
V187     V     0.6894   0.1194   0.9505
V188     V     0.6894   0.1194   0.0495
V189     V     0.4505   0.1894   0.8806
V190     V     0.5495   0.1894   0.8806
V191     V     0.4505   0.1194   0.8106
V192     V     0.5495   0.1194   0.8106
V193     V     0.3106   0.1194   0.9505
V194     V     0.3106   0.1194   0.0495
V195     V     0.3806   0.1894   0.9505
V196     V     0.3806   0.1894   0.0495
V197     V     0.3106   0.8806   0.9505
V198     V     0.3106   0.8806   0.0495
V199     V     0.3806   0.8106   0.9505
V200     V     0.3806   0.8106   0.0495
V201     V     0.3106   0.9505   0.8806
V202     V     0.3106   0.0495   0.8806
V203     V     0.3806   0.9505   0.8106
V204     V     0.3806   0.0495   0.8106
V205     V     0.4505   0.8106   0.8806
V206     V     0.5495   0.8106   0.8806
V207     V     0.5495   0.8806   0.8106
V208     V     0.4505   0.8806   0.8106
V209     V     0.6894   0.8806   0.9505
V210     V     0.6894   0.8806   0.0495
V211     V     0.6194   0.8106   0.9505
V212     V     0.6194   0.8106   0.0495
V213     V     0.6894   0.9505   0.8806
V214     V     0.6894   0.0495   0.8806
V215     V     0.6194   0.9505   0.8106
V216     V     0.6194   0.0495   0.8106
V217     V     0.3106   0.9505   0.1194
V218     V     0.3106   0.0495   0.1194
V219     V     0.3806   0.9505   0.1894
V220     V     0.3806   0.0495   0.1894
V221     V     0.5495   0.8806   0.1894
V222     V     0.4505   0.8806   0.1894
V223     V     0.5495   0.8106   0.1194
V224     V     0.4505   0.8106   0.1194
V225     V     0.6194   0.9505   0.1894
V226     V     0.6194   0.0495   0.1894
V227     V     0.6894   0.9505   0.1194
V228     V     0.6894   0.0495   0.1194
Er229     Er     0.785   0.785   0.5495
Er230     Er     0.715   0.715   0.5495
Er231     Er     0.785   0.785   0.4505
Er232     Er     0.715   0.715   0.4505
Er233     Er     0.715   0.0495   0.785
Er234     Er     0.785   0.0495   0.715
Er235     Er     0.785   0.9505   0.715
Er236     Er     0.715   0.9505   0.785
Er237     Er     0.0495   0.785   0.715
Er238     Er     0.0495   0.715   0.785
Er239     Er     0.9505   0.785   0.715
Er240     Er     0.9505   0.715   0.785
V241     V     0.1894   0.1194   0.4505
V242     V     0.1894   0.1194   0.5495
V243     V     0.1194   0.1894   0.5495
V244     V     0.1194   0.1894   0.4505
V245     V     0.1894   0.9505   0.6194
V246     V     0.1894   0.0495   0.6194
V247     V     0.1194   0.9505   0.6894
V248     V     0.1194   0.0495   0.6894
V249     V     0.1894   0.8806   0.4505
V250     V     0.1894   0.8806   0.5495
V251     V     0.1194   0.8106   0.4505
V252     V     0.1194   0.8106   0.5495
V253     V     0.1194   0.9505   0.3106
V254     V     0.1194   0.0495   0.3106
V255     V     0.1894   0.9505   0.3806
V256     V     0.1894   0.0495   0.3806
V257     V     0.8806   0.9505   0.6894
V258     V     0.8806   0.0495   0.6894
V259     V     0.8106   0.9505   0.6194
V260     V     0.8106   0.0495   0.6194
V261     V     0.9505   0.8806   0.6894
V262     V     0.0495   0.8806   0.6894
V263     V     0.9505   0.8106   0.6194
V264     V     0.0495   0.8106   0.6194
V265     V     0.8106   0.8806   0.4505
V266     V     0.8106   0.8806   0.5495
V267     V     0.8806   0.8106   0.4505
V268     V     0.8806   0.8106   0.5495
V269     V     0.9505   0.8806   0.3106
V270     V     0.0495   0.8806   0.3106
V271     V     0.9505   0.8106   0.3806
V272     V     0.0495   0.8106   0.3806
V273     V     0.8806   0.9505   0.3106
V274     V     0.8806   0.0495   0.3106
V275     V     0.8106   0.9505   0.3806
V276     V     0.8106   0.0495   0.3806
V277     V     0.9505   0.1894   0.6194
V278     V     0.0495   0.1894   0.6194
V279     V     0.9505   0.1194   0.6894
V280     V     0.0495   0.1194   0.6894
V281     V     0.8806   0.1894   0.4505
V282     V     0.8806   0.1894   0.5495
V283     V     0.8106   0.1194   0.5495
V284     V     0.8106   0.1194   0.4505
V285     V     0.9505   0.1194   0.3106
V286     V     0.0495   0.1194   0.3106
V287     V     0.9505   0.1894   0.3806
V288     V     0.0495   0.1894   0.3806
loop_
_geom_bond_atom_site_label_1
_geom_bond_atom_site_label_2
_geom_bond_distance
_geom_bond_site_symmetry_2
_ccdc_geom_bond_type
Er1     Er2    9.999   .     S
Er1     Er3    9.999   .     S
Er1     V183    10.0   .     S
Er1     V182    10.0   .     S
Er2     Er4    9.999   .     S
Er2     V99    10.0   .     S
Er2     V97    10.0   .     S
Er3     Er4    9.999   .     S
Er3     V184    10.0   .     S
Er3     V181    10.0   .     S
Er4     V100    10.0   .     S
Er4     V98    10.0   .     S
Er5     Er6    9.999   .     S
Er5     Er7    9.999   .     S
Er5     V243    10.0   .     S
Er5     V242    10.0   .     S
Er6     Er8    9.999   .     S
Er6     V90    10.0   .     S
Er6     V91    10.0   .     S
Er7     Er8    9.999   .     S
Er7     V244    10.0   .     S
Er7     V241    10.0   .     S
Er8     V89    10.0   .     S
Er8     V92    10.0   .     S
Er9     Er10    9.999   .     S
Er9     Er11    9.999   .     S
Er9     V127    10.0   .     S
Er9     V126    10.0   .     S
Er10     Er12    9.999   .     S
Er10     V87    10.0   .     S
Er10     V85    10.0   .     S
Er11     Er12    9.999   .     S
Er11     V128    10.0   .     S
Er11     V125    10.0   .     S
Er12     V88    10.0   .     S
Er12     V86    10.0   .     S
Er13     Er14    9.999   .     S
Er13     Er15    9.999   1_554     S
Er13     V130    10.0   .     S
Er13     V132    10.0   .     S
Er14     Er16    9.999   1_554     S
Er14     V194    10.0   .     S
Er14     V196    10.0   .     S
Er15     Er16    9.999   .     S
Er15     Er13    9.999   1_556     S
Er15     V129    10.0   .     S
Er15     V131    10.0   .     S
Er16     Er14    9.999   1_556     S
Er16     V193    10.0   .     S
Er16     V195    10.0   .     S
Er17     Er18    9.999   .     S
Er17     Er20    9.999   1_545     S
Er17     V218    10.0   .     S
Er17     V220    10.0   .     S
Er18     Er19    9.999   1_545     S
Er18     V254    10.0   .     S
Er18     V256    10.0   .     S
Er19     Er20    9.999   .     S
Er19     Er18    9.999   1_565     S
Er19     V253    10.0   .     S
Er19     V255    10.0   .     S
Er20     Er17    9.999   1_565     S
Er20     V217    10.0   .     S
Er20     V219    10.0   .     S
Er21     Er22    9.999   .     S
Er21     Er23    9.999   1_455     S
Er21     V286    10.0   .     S
Er21     V288    10.0   .     S
Er22     Er24    9.999   1_455     S
Er22     V170    10.0   .     S
Er22     V172    10.0   .     S
Er23     Er24    9.999   .     S
Er23     Er21    9.999   1_655     S
Er23     V285    10.0   .     S
Er23     V287    10.0   .     S
Er24     Er22    9.999   1_655     S
Er24     V169    10.0   .     S
Er24     V171    10.0   .     S
Er25     Er26    9.999   .     S
Er25     Er27    9.999   .     S
Er25     V222    10.0   .     S
Er25     V224    10.0   .     S
Er26     Er28    9.999   .     S
Er26     V75    10.0   .     S
Er26     V74    10.0   .     S
Er27     Er28    9.999   .     S
Er27     V221    10.0   .     S
Er27     V223    10.0   .     S
Er28     V76    10.0   .     S
Er28     V73    10.0   .     S
Er29     Er30    9.999   .     S
Er29     Er31    9.999   .     S
Er29     V191    10.0   .     S
Er29     V189    10.0   .     S
Er30     Er32    9.999   .     S
Er30     V94    10.0   .     S
Er30     V95    10.0   .     S
Er31     Er32    9.999   .     S
Er31     V192    10.0   .     S
Er31     V190    10.0   .     S
Er32     V93    10.0   .     S
Er32     V96    10.0   .     S
Er33     Er34    9.999   .     S
Er33     Er35    9.999   .     S
Er33     V115    10.0   .     S
Er33     V113    10.0   .     S
Er34     Er36    9.999   .     S
Er34     V282    10.0   .     S
Er34     V283    10.0   .     S
Er35     Er36    9.999   .     S
Er35     V116    10.0   .     S
Er35     V114    10.0   .     S
Er36     V281    10.0   .     S
Er36     V284    10.0   .     S
Er37     Er38    9.999   .     S
Er37     Er39    9.999   .     S
Er37     V251    10.0   .     S
Er37     V249    10.0   .     S
Er38     Er40    9.999   .     S
Er38     V81    10.0   .     S
Er38     V83    10.0   .     S
Er39     Er40    9.999   .     S
Er39     V252    10.0   .     S
Er39     V250    10.0   .     S
Er40     V82    10.0   .     S
Er40     V84    10.0   .     S
Er41     Er42    9.999   .     S
Er41     Er43    9.999   .     S
Er41     V166    10.0   .     S
Er41     V168    10.0   .     S
Er42     Er44    9.999   .     S
Er42     V112    10.0   .     S
Er42     V110    10.0   .     S
Er43     Er44    9.999   .     S
Er43     V165    10.0   .     S
Er43     V167    10.0   .     S
Er44     V111    10.0   .     S
Er44     V109    10.0   .     S
Er45     Er46    9.999   .     S
Er45     Er47    9.999   .     S
Er45     V135    10.0   .     S
Er45     V133    10.0   .     S
Er46     Er48    9.999   .     S
Er46     V77    10.0   .     S
Er46     V79    10.0   .     S
Er47     Er48    9.999   .     S
Er47     V136    10.0   .     S
Er47     V134    10.0   .     S
Er48     V78    10.0   .     S
Er48     V80    10.0   .     S
Er49     Er50    9.999   .     S
Er49     Er52    9.999   1_554     S
Er49     V188    10.0   .     S
Er49     V186    10.0   .     S
Er50     Er51    9.999   1_554     S
Er50     V142    10.0   .     S
Er50     V144    10.0   .     S
Er51     Er52    9.999   .     S
Er51     Er50    9.999   1_556     S
Er51     V141    10.0   .     S
Er51     V143    10.0   .     S
Er52     Er49    9.999   1_556     S
Er52     V187    10.0   .     S
Er52     V185    10.0   .     S
Er53     Er54    9.999   .     S
Er53     Er56    9.999   1_554     S
Er53     V198    10.0   .     S
Er53     V200    10.0   .     S
Er54     Er55    9.999   1_554     S
Er54     V140    10.0   .     S
Er54     V138    10.0   .     S
Er55     Er56    9.999   .     S
Er55     Er54    9.999   1_556     S
Er55     V139    10.0   .     S
Er55     V137    10.0   .     S
Er56     Er53    9.999   1_556     S
Er56     V197    10.0   .     S
Er56     V199    10.0   .     S
Er57     Er58    9.999   .     S
Er57     Er60    9.999   1_455     S
Er57     V146    10.0   .     S
Er57     V148    10.0   .     S
Er58     Er59    9.999   1_455     S
Er58     V280    10.0   .     S
Er58     V278    10.0   .     S
Er59     Er60    9.999   .     S
Er59     Er58    9.999   1_655     S
Er59     V279    10.0   .     S
Er59     V277    10.0   .     S
Er60     Er57    9.999   1_655     S
Er60     V145    10.0   .     S
Er60     V147    10.0   .     S
Er61     Er62    9.999   .     S
Er61     Er63    9.999   1_545     S
Er61     V248    10.0   .     S
Er61     V246    10.0   .     S
Er62     Er64    9.999   1_545     S
Er62     V202    10.0   .     S
Er62     V204    10.0   .     S
Er63     Er64    9.999   .     S
Er63     Er61    9.999   1_565     S
Er63     V247    10.0   .     S
Er63     V245    10.0   .     S
Er64     Er62    9.999   1_565     S
Er64     V201    10.0   .     S
Er64     V203    10.0   .     S
Er65     Er66    9.999   .     S
Er65     Er68    9.999   1_455     S
Er65     V164    10.0   .     S
Er65     V162    10.0   .     S
Er66     Er67    9.999   1_455     S
Er66     V270    10.0   .     S
Er66     V272    10.0   .     S
Er67     Er68    9.999   .     S
Er67     Er66    9.999   1_655     S
Er67     V269    10.0   .     S
Er67     V271    10.0   .     S
Er68     Er65    9.999   1_655     S
Er68     V163    10.0   .     S
Er68     V161    10.0   .     S
Er69     Er70    9.999   .     S
Er69     Er71    9.999   1_545     S
Er69     V274    10.0   .     S
Er69     V276    10.0   .     S
Er70     Er72    9.999   1_545     S
Er70     V228    10.0   .     S
Er70     V226    10.0   .     S
Er71     Er72    9.999   .     S
Er71     Er69    9.999   1_565     S
Er71     V273    10.0   .     S
Er71     V275    10.0   .     S
Er72     Er70    9.999   1_565     S
Er72     V227    10.0   .     S
Er72     V225    10.0   .     S
V73     V74    9.999   .     S
V73     V76    10.0   .     S
V73     V110    10.0   .     S
V74     V75    10.0   .     S
V74     V86    10.0   .     S
V75     V76    9.999   .     S
V75     V83    10.0   .     S
V76     V106    10.0   .     S
V77     V78    9.999   .     S
V77     V79    10.0   .     S
V77     V82    10.0   .     S
V78     V80    10.0   .     S
V78     V90    10.0   .     S
V79     V80    9.999   .     S
V79     V102    10.0   .     S
V80     V95    10.0   .     S
V81     V82    9.999   .     S
V81     V83    10.0   .     S
V81     V88    10.0   .     S
V82     V84    10.0   .     S
V83     V84    9.999   .     S
V84     V104    10.0   .     S
V85     V86    9.999   .     S
V85     V98    10.0   .     S
V85     V87    10.0   .     S
V86     V88    10.0   .     S
V87     V88    9.999   .     S
V87     V89    10.0   .     S
V89     V90    9.999   .     S
V89     V92    10.0   .     S
V90     V91    10.0   .     S
V91     V92    9.999   .     S
V91     V94    10.0   .     S
V92     V100    10.0   .     S
V93     V94    9.999   .     S
V93     V96    10.0   .     S
V93     V113    10.0   .     S
V94     V95    10.0   .     S
V95     V96    9.999   .     S
V96     V117    10.0   .     S
V97     V98    9.999   .     S
V97     V109    10.0   .     S
V97     V99    10.0   .     S
V98     V100    10.0   .     S
V99     V100    9.999   .     S
V99     V114    10.0   .     S
V101     V102    9.999   .     S
V101     Er174    10.0   .     S
V101     V118    10.0   .     S
V101     V103    10.0   .     S
V102     Er176    10.0   .     S
V102     V104    10.0   .     S
V103     Er174    10.0   .     S
V103     V104    9.999   .     S
V103     V105    10.0   .     S
V104     Er176    10.0   .     S
V105     V106    9.999   .     S
V105     Er230    10.0   .     S
V105     V108    10.0   .     S
V106     Er232    10.0   .     S
V106     V107    10.0   .     S
V107     Er232    10.0   .     S
V107     V108    9.999   .     S
V107     V112    10.0   .     S
V108     Er230    10.0   .     S
V108     V120    10.0   .     S
V109     V110    9.999   .     S
V109     V111    10.0   .     S
V110     V112    10.0   .     S
V111     V112    9.999   .     S
V111     V116    10.0   .     S
V113     V114    9.999   .     S
V113     V115    10.0   .     S
V114     V116    10.0   .     S
V115     V116    9.999   .     S
V115     V119    10.0   .     S
V117     V118    9.999   .     S
V117     Er122    10.0   .     S
V117     V119    10.0   .     S
V118     Er124    10.0   .     S
V118     V120    10.0   .     S
V119     Er122    10.0   .     S
V119     V120    9.999   .     S
V120     Er124    10.0   .     S
Er121     Er122    9.999   .     S
Er121     Er123    9.999   .     S
Er121     V152    10.0   .     S
Er121     V150    10.0   .     S
Er122     Er124    9.999   .     S
Er123     Er124    9.999   .     S
Er123     V151    10.0   .     S
Er123     V149    10.0   .     S
V125     V126    9.999   .     S
V125     V138    10.0   .     S
V125     V128    10.0   .     S
V126     V132    10.0   .     S
V126     V127    10.0   .     S
V127     V128    9.999   .     S
V127     V172    10.0   .     S
V128     V162    10.0   .     S
V129     V130    9.999   1_556     S
V129     V146    10.0   .     S
V129     V131    10.0   .     S
V130     V129    9.999   1_554     S
V130     V132    10.0   .     S
V130     V170    10.0   .     S
V131     V132    9.999   1_556     S
V131     V134    10.0   .     S
V132     V131    9.999   1_554     S
V133     V134    9.999   .     S
V133     V137    10.0   .     S
V133     V135    10.0   .     S
V134     V136    10.0   .     S
V135     V136    9.999   .     S
V135     V160    10.0   .     S
V136     V148    10.0   .     S
V137     V138    9.999   1_556     S
V137     V139    10.0   .     S
V138     V137    9.999   1_554     S
V138     V140    10.0   .     S
V139     V140    9.999   1_556     S
V139     V158    10.0   .     S
V140     V139    9.999   1_554     S
V140     V164    10.0   .     S
V141     V142    9.999   1_556     S
V141     V145    10.0   .     S
V141     V143    10.0   .     S
V142     V141    9.999   1_554     S
V142     V144    10.0   .     S
V142     V169    10.0   .     S
V143     V144    9.999   1_556     S
V143     V150    10.0   .     S
V144     V143    9.999   1_554     S
V144     V167    10.0   .     S
V145     V146    9.999   1_655     S
V145     V147    10.0   .     S
V146     V145    9.999   1_455     S
V146     V148    10.0   .     S
V147     V148    9.999   1_655     S
V147     V152    10.0   .     S
V148     V147    9.999   1_455     S
V149     V150    9.999   .     S
V149     V151    10.0   .     S
V149     V155    10.0   .     S
V150     V152    10.0   .     S
V151     V152    9.999   .     S
V151     V159    10.0   .     S
V153     V154    9.999   1_556     S
V153     Er180    10.0   .     S
V153     V155    10.0   .     S
V153     V157    10.0   .     S
V154     V153    9.999   1_554     S
V154     Er177    10.0   .     S
V154     V156    10.0   .     S
V154     V163    10.0   .     S
V155     Er180    10.0   .     S
V155     V156    9.999   1_556     S
V156     Er177    10.0   .     S
V156     V155    9.999   1_554     S
V156     V168    10.0   .     S
V157     V158    9.999   1_655     S
V157     Er240    10.0   .     S
V157     V159    10.0   .     S
V158     V157    9.999   1_455     S
V158     Er238    10.0   .     S
V158     V160    10.0   .     S
V159     Er240    10.0   .     S
V159     V160    9.999   1_655     S
V160     Er238    10.0   .     S
V160     V159    9.999   1_455     S
V161     V162    9.999   1_655     S
V161     V163    10.0   .     S
V161     V166    10.0   .     S
V162     V161    9.999   1_455     S
V162     V164    10.0   .     S
V163     V164    9.999   1_655     S
V164     V163    9.999   1_455     S
V165     V166    9.999   .     S
V165     V171    10.0   .     S
V165     V167    10.0   .     S
V166     V168    10.0   .     S
V167     V168    9.999   .     S
V169     V170    9.999   1_655     S
V169     V171    10.0   .     S
V170     V169    9.999   1_455     S
V170     V172    10.0   .     S
V171     V172    9.999   1_655     S
V172     V171    9.999   1_455     S
Er173     Er174    9.999   .     S
Er173     Er175    9.999   .     S
Er173     V207    10.0   .     S
Er173     V206    10.0   .     S
Er174     Er176    9.999   .     S
Er175     Er176    9.999   .     S
Er175     V208    10.0   .     S
Er175     V205    10.0   .     S
Er177     Er178    9.999   .     S
Er177     Er180    9.999   1_554     S
Er178     Er179    9.999   1_554     S
Er178     V210    10.0   .     S
Er178     V212    10.0   .     S
Er179     Er180    9.999   .     S
Er179     Er178    9.999   1_556     S
Er179     V209    10.0   .     S
Er179     V211    10.0   .     S
Er180     Er177    9.999   1_556     S
V181     V182    9.999   .     S
V181     V196    10.0   .     S
V181     V184    10.0   .     S
V182     V186    10.0   .     S
V182     V183    10.0   .     S
V183     V184    9.999   .     S
V183     V226    10.0   .     S
V184     V220    10.0   .     S
V185     V186    9.999   1_556     S
V185     V187    10.0   .     S
V185     V190    10.0   .     S
V186     V185    9.999   1_554     S
V186     V188    10.0   .     S
V187     V188    9.999   1_556     S
V187     V214    10.0   .     S
V188     V187    9.999   1_554     S
V188     V228    10.0   .     S
V189     V190    9.999   .     S
V189     V195    10.0   .     S
V189     V191    10.0   .     S
V190     V192    10.0   .     S
V191     V192    9.999   .     S
V191     V204    10.0   .     S
V192     V216    10.0   .     S
V193     V194    9.999   1_556     S
V193     V202    10.0   .     S
V193     V195    10.0   .     S
V194     V193    9.999   1_554     S
V194     V196    10.0   .     S
V194     V218    10.0   .     S
V195     V196    9.999   1_556     S
V196     V195    9.999   1_554     S
V197     V198    9.999   1_556     S
V197     V201    10.0   .     S
V197     V199    10.0   .     S
V198     V197    9.999   1_554     S
V198     V200    10.0   .     S
V198     V217    10.0   .     S
V199     V200    9.999   1_556     S
V199     V205    10.0   .     S
V200     V199    9.999   1_554     S
V200     V224    10.0   .     S
V201     V202    9.999   1_565     S
V201     V203    10.0   .     S
V202     V201    9.999   1_545     S
V202     V204    10.0   .     S
V203     V204    9.999   1_565     S
V203     V208    10.0   .     S
V204     V203    9.999   1_545     S
V205     V206    9.999   .     S
V205     V208    10.0   .     S
V206     V207    10.0   .     S
V206     V211    10.0   .     S
V207     V208    9.999   .     S
V207     V215    10.0   .     S
V209     V210    9.999   1_556     S
V209     V211    10.0   .     S
V209     V213    10.0   .     S
V210     V209    9.999   1_554     S
V210     V212    10.0   .     S
V210     V227    10.0   .     S
V211     V212    9.999   1_556     S
V212     V211    9.999   1_554     S
V212     V223    10.0   .     S
V213     V214    9.999   1_565     S
V213     Er236    10.0   .     S
V213     V215    10.0   .     S
V214     V213    9.999   1_545     S
V214     Er233    10.0   .     S
V214     V216    10.0   .     S
V215     Er236    10.0   .     S
V215     V216    9.999   1_565     S
V216     Er233    10.0   .     S
V216     V215    9.999   1_545     S
V217     V218    9.999   1_565     S
V217     V219    10.0   .     S
V218     V217    9.999   1_545     S
V218     V220    10.0   .     S
V219     V220    9.999   1_565     S
V219     V222    10.0   .     S
V220     V219    9.999   1_545     S
V221     V222    9.999   .     S
V221     V225    10.0   .     S
V221     V223    10.0   .     S
V222     V224    10.0   .     S
V223     V224    9.999   .     S
V225     V226    9.999   1_565     S
V225     V227    10.0   .     S
V226     V225    9.999   1_545     S
V226     V228    10.0   .     S
V227     V228    9.999   1_565     S
V228     V227    9.999   1_545     S
Er229     Er230    9.999   .     S
Er229     Er231    9.999   .     S
Er229     V268    10.0   .     S
Er229     V266    10.0   .     S
Er230     Er232    9.999   .     S
Er231     Er232    9.999   .     S
Er231     V267    10.0   .     S
Er231     V265    10.0   .     S
Er233     Er234    9.999   .     S
Er233     Er236    9.999   1_545     S
Er234     Er235    9.999   1_545     S
Er234     V258    10.0   .     S
Er234     V260    10.0   .     S
Er235     Er236    9.999   .     S
Er235     Er234    9.999   1_565     S
Er235     V257    10.0   .     S
Er235     V259    10.0   .     S
Er236     Er233    9.999   1_565     S
Er237     Er238    9.999   .     S
Er237     Er239    9.999   1_455     S
Er237     V262    10.0   .     S
Er237     V264    10.0   .     S
Er238     Er240    9.999   1_455     S
Er239     Er240    9.999   .     S
Er239     Er237    9.999   1_655     S
Er239     V261    10.0   .     S
Er239     V263    10.0   .     S
Er240     Er238    9.999   1_655     S
V241     V242    9.999   .     S
V241     V256    10.0   .     S
V241     V244    10.0   .     S
V242     V246    10.0   .     S
V242     V243    10.0   .     S
V243     V244    9.999   .     S
V243     V278    10.0   .     S
V244     V288    10.0   .     S
V245     V246    9.999   1_565     S
V245     V247    10.0   .     S
V245     V250    10.0   .     S
V246     V245    9.999   1_545     S
V246     V248    10.0   .     S
V247     V248    9.999   1_565     S
V247     V262    10.0   .     S
V248     V247    9.999   1_545     S
V248     V280    10.0   .     S
V249     V250    9.999   .     S
V249     V255    10.0   .     S
V249     V251    10.0   .     S
V250     V252    10.0   .     S
V251     V252    9.999   .     S
V251     V272    10.0   .     S
V252     V264    10.0   .     S
V253     V254    9.999   1_565     S
V253     V270    10.0   .     S
V253     V255    10.0   .     S
V254     V253    9.999   1_545     S
V254     V256    10.0   .     S
V254     V286    10.0   .     S
V255     V256    9.999   1_565     S
V256     V255    9.999   1_545     S
V257     V258    9.999   1_565     S
V257     V259    10.0   .     S
V257     V261    10.0   .     S
V258     V257    9.999   1_545     S
V258     V260    10.0   .     S
V258     V279    10.0   .     S
V259     V260    9.999   1_565     S
V259     V266    10.0   .     S
V260     V259    9.999   1_545     S
V260     V283    10.0   .     S
V261     V262    9.999   1_655     S
V261     V263    10.0   .     S
V262     V261    9.999   1_455     S
V262     V264    10.0   .     S
V263     V264    9.999   1_655     S
V263     V268    10.0   .     S
V264     V263    9.999   1_455     S
V265     V266    9.999   .     S
V265     V267    10.0   .     S
V265     V275    10.0   .     S
V266     V268    10.0   .     S
V267     V268    9.999   .     S
V267     V271    10.0   .     S
V269     V270    9.999   1_655     S
V269     V273    10.0   .     S
V269     V271    10.0   .     S
V270     V269    9.999   1_455     S
V270     V272    10.0   .     S
V271     V272    9.999   1_655     S
V272     V271    9.999   1_455     S
V273     V274    9.999   1_565     S
V273     V275    10.0   .     S
V274     V273    9.999   1_545     S
V274     V276    10.0   .     S
V274     V285    10.0   .     S
V275     V276    9.999   1_565     S
V276     V275    9.999   1_545     S
V276     V284    10.0   .     S
V277     V278    9.999   1_655     S
V277     V279    10.0   .     S
V277     V282    10.0   .     S
V278     V277    9.999   1_455     S
V278     V280    10.0   .     S
V279     V280    9.999   1_655     S
V280     V279    9.999   1_455     S
V281     V282    9.999   .     S
V281     V287    10.0   .     S
V281     V284    10.0   .     S
V282     V283    10.0   .     S
V283     V284    9.999   .     S
V285     V286    9.999   1_655     S
V285     V287    10.0   .     S
V286     V285    9.999   1_455     S
V286     V288    10.0   .     S
V287     V288    9.999   1_655     S
V288     V287    9.999   1_455     S
