data_fty
_audit_creation_date              2020-02-02
_audit_creation_method            'Pymatgen'
_symmetry_space_group_name_H-M    'P1'
_symmetry_Int_Tables_number       1
loop_
_symmetry_equiv_pos_as_xyz
  x,y,z
_cell_length_a                    68.2843
_cell_length_b                    68.2843
_cell_length_c                    68.2843
_cell_angle_alpha                 90.0
_cell_angle_beta                 90.0
_cell_angle_gamma                 90.0
loop_
_atom_site_label
_atom_site_type_symbol
_atom_site_fract_x
_atom_site_fract_y
_atom_site_fract_z
V1     V     0.9268   0.5732   0.8232
V2     V     0.0732   0.5732   0.8232
V3     V     0.9268   0.4268   0.8232
V4     V     0.0732   0.4268   0.8232
V5     V     0.8232   0.5732   0.9268
V6     V     0.8232   0.5732   0.0732
V7     V     0.8232   0.4268   0.9268
V8     V     0.8232   0.4268   0.0732
V9     V     0.1768   0.5732   0.9268
V10     V     0.1768   0.5732   0.0732
V11     V     0.1768   0.4268   0.9268
V12     V     0.1768   0.4268   0.0732
V13     V     0.9268   0.5732   0.1768
V14     V     0.0732   0.5732   0.1768
V15     V     0.9268   0.4268   0.1768
V16     V     0.0732   0.4268   0.1768
V17     V     0.5732   0.9268   0.8232
V18     V     0.5732   0.0732   0.8232
V19     V     0.4268   0.9268   0.8232
V20     V     0.4268   0.0732   0.8232
V21     V     0.5732   0.8232   0.9268
V22     V     0.5732   0.8232   0.0732
V23     V     0.4268   0.8232   0.9268
V24     V     0.4268   0.8232   0.0732
V25     V     0.5732   0.1768   0.9268
V26     V     0.5732   0.1768   0.0732
V27     V     0.4268   0.1768   0.9268
V28     V     0.4268   0.1768   0.0732
V29     V     0.5732   0.9268   0.1768
V30     V     0.5732   0.0732   0.1768
V31     V     0.4268   0.9268   0.1768
V32     V     0.4268   0.0732   0.1768
V33     V     0.9268   0.8232   0.5732
V34     V     0.0732   0.8232   0.5732
V35     V     0.9268   0.8232   0.4268
V36     V     0.0732   0.8232   0.4268
V37     V     0.8232   0.9268   0.5732
V38     V     0.8232   0.0732   0.5732
V39     V     0.8232   0.9268   0.4268
V40     V     0.8232   0.0732   0.4268
V41     V     0.1768   0.9268   0.5732
V42     V     0.1768   0.0732   0.5732
V43     V     0.1768   0.9268   0.4268
V44     V     0.1768   0.0732   0.4268
V45     V     0.9268   0.1768   0.5732
V46     V     0.0732   0.1768   0.5732
V47     V     0.9268   0.1768   0.4268
V48     V     0.0732   0.1768   0.4268
Er49     Er     0.1768   0.2803   0.0732
Er50     Er     0.1768   0.2803   0.9268
Er51     Er     0.2803   0.1768   0.0732
Er52     Er     0.2803   0.1768   0.9268
Er53     Er     0.0732   0.2803   0.1768
Er54     Er     0.9268   0.2803   0.1768
Er55     Er     0.0732   0.1768   0.2803
Er56     Er     0.9268   0.1768   0.2803
Er57     Er     0.2803   0.9268   0.1768
Er58     Er     0.2803   0.0732   0.1768
Er59     Er     0.1768   0.9268   0.2803
Er60     Er     0.1768   0.0732   0.2803
Er61     Er     0.7197   0.8232   0.9268
Er62     Er     0.7197   0.8232   0.0732
Er63     Er     0.8232   0.7197   0.9268
Er64     Er     0.8232   0.7197   0.0732
Er65     Er     0.7197   0.9268   0.8232
Er66     Er     0.7197   0.0732   0.8232
Er67     Er     0.8232   0.9268   0.7197
Er68     Er     0.8232   0.0732   0.7197
Er69     Er     0.9268   0.7197   0.8232
Er70     Er     0.0732   0.7197   0.8232
Er71     Er     0.9268   0.8232   0.7197
Er72     Er     0.0732   0.8232   0.7197
Er73     Er     0.8232   0.9268   0.2803
Er74     Er     0.8232   0.0732   0.2803
Er75     Er     0.7197   0.9268   0.1768
Er76     Er     0.7197   0.0732   0.1768
Er77     Er     0.9268   0.8232   0.2803
Er78     Er     0.0732   0.8232   0.2803
Er79     Er     0.9268   0.7197   0.1768
Er80     Er     0.0732   0.7197   0.1768
Er81     Er     0.2803   0.8232   0.9268
Er82     Er     0.2803   0.8232   0.0732
Er83     Er     0.1768   0.7197   0.9268
Er84     Er     0.1768   0.7197   0.0732
Er85     Er     0.2803   0.9268   0.8232
Er86     Er     0.2803   0.0732   0.8232
Er87     Er     0.1768   0.9268   0.7197
Er88     Er     0.1768   0.0732   0.7197
Er89     Er     0.8232   0.2803   0.9268
Er90     Er     0.8232   0.2803   0.0732
Er91     Er     0.7197   0.1768   0.9268
Er92     Er     0.7197   0.1768   0.0732
Er93     Er     0.0732   0.2803   0.8232
Er94     Er     0.9268   0.2803   0.8232
Er95     Er     0.9268   0.1768   0.7197
Er96     Er     0.0732   0.1768   0.7197
loop_
_geom_bond_atom_site_label_1
_geom_bond_atom_site_label_2
_geom_bond_distance
_geom_bond_site_symmetry_2
_ccdc_geom_bond_type
V1     V2    10.0   1_655     S
V1     V3    10.0   .     S
V1     V5    10.001   .     S
V1     Er69    10.0   .     S
V2     V1    10.0   1_455     S
V2     V4    10.0   .     S
V2     V9    10.001   .     S
V2     Er70    10.0   .     S
V3     V4    10.0   1_655     S
V3     V7    10.001   .     S
V3     Er94    10.0   .     S
V4     V3    10.0   1_455     S
V4     V11    10.001   .     S
V4     Er93    10.0   .     S
V5     V6    10.0   1_556     S
V5     V7    10.0   .     S
V5     Er63    10.0   .     S
V6     V5    10.0   1_554     S
V6     V8    10.0   .     S
V6     V13    10.001   .     S
V6     Er64    10.0   .     S
V7     V8    10.0   1_556     S
V7     Er89    10.0   .     S
V8     V7    10.0   1_554     S
V8     V15    10.001   .     S
V8     Er90    10.0   .     S
V9     V10    10.0   1_556     S
V9     V11    10.0   .     S
V9     Er83    10.0   .     S
V10     V9    10.0   1_554     S
V10     V12    10.0   .     S
V10     V14    10.001   .     S
V10     Er84    10.0   .     S
V11     V12    10.0   1_556     S
V11     Er50    10.0   .     S
V12     V11    10.0   1_554     S
V12     V16    10.001   .     S
V12     Er49    10.0   .     S
V13     V14    10.0   1_655     S
V13     V15    10.0   .     S
V13     Er79    10.0   .     S
V14     V13    10.0   1_455     S
V14     V16    10.0   .     S
V14     Er80    10.0   .     S
V15     V16    10.0   1_655     S
V15     Er54    10.0   .     S
V16     V15    10.0   1_455     S
V16     Er53    10.0   .     S
V17     V18    10.0   1_565     S
V17     V19    10.0   .     S
V17     V21    10.001   .     S
V17     Er65    10.0   .     S
V18     V17    10.0   1_545     S
V18     V20    10.0   .     S
V18     V25    10.001   .     S
V18     Er66    10.0   .     S
V19     V20    10.0   1_565     S
V19     V23    10.001   .     S
V19     Er85    10.0   .     S
V20     V19    10.0   1_545     S
V20     V27    10.001   .     S
V20     Er86    10.0   .     S
V21     V22    10.0   1_556     S
V21     V23    10.0   .     S
V21     Er61    10.0   .     S
V22     V21    10.0   1_554     S
V22     V24    10.0   .     S
V22     V29    10.001   .     S
V22     Er62    10.0   .     S
V23     V24    10.0   1_556     S
V23     Er81    10.0   .     S
V24     V23    10.0   1_554     S
V24     V31    10.001   .     S
V24     Er82    10.0   .     S
V25     V26    10.0   1_556     S
V25     V27    10.0   .     S
V25     Er91    10.0   .     S
V26     V25    10.0   1_554     S
V26     V28    10.0   .     S
V26     V30    10.001   .     S
V26     Er92    10.0   .     S
V27     V28    10.0   1_556     S
V27     Er52    10.0   .     S
V28     V27    10.0   1_554     S
V28     V32    10.001   .     S
V28     Er51    10.0   .     S
V29     V30    10.0   1_565     S
V29     V31    10.0   .     S
V29     Er75    10.0   .     S
V30     V29    10.0   1_545     S
V30     V32    10.0   .     S
V30     Er76    10.0   .     S
V31     V32    10.0   1_565     S
V31     Er57    10.0   .     S
V32     V31    10.0   1_545     S
V32     Er58    10.0   .     S
V33     V34    10.0   1_655     S
V33     V35    10.0   .     S
V33     V37    10.001   .     S
V33     Er71    10.0   .     S
V34     V33    10.0   1_455     S
V34     V36    10.0   .     S
V34     V41    10.001   .     S
V34     Er72    10.0   .     S
V35     V36    10.0   1_655     S
V35     V39    10.001   .     S
V35     Er77    10.0   .     S
V36     V35    10.0   1_455     S
V36     V43    10.001   .     S
V36     Er78    10.0   .     S
V37     V38    10.0   1_565     S
V37     V39    10.0   .     S
V37     Er67    10.0   .     S
V38     V37    10.0   1_545     S
V38     V40    10.0   .     S
V38     V45    10.001   .     S
V38     Er68    10.0   .     S
V39     V40    10.0   1_565     S
V39     Er73    10.0   .     S
V40     V39    10.0   1_545     S
V40     V47    10.001   .     S
V40     Er74    10.0   .     S
V41     V42    10.0   1_565     S
V41     V43    10.0   .     S
V41     Er87    10.0   .     S
V42     V41    10.0   1_545     S
V42     V44    10.0   .     S
V42     V46    10.001   .     S
V42     Er88    10.0   .     S
V43     V44    10.0   1_565     S
V43     Er59    10.0   .     S
V44     V43    10.0   1_545     S
V44     V48    10.001   .     S
V44     Er60    10.0   .     S
V45     V46    10.0   1_655     S
V45     V47    10.0   .     S
V45     Er95    10.0   .     S
V46     V45    10.0   1_455     S
V46     V48    10.0   .     S
V46     Er96    10.0   .     S
V47     V48    10.0   1_655     S
V47     Er56    10.0   .     S
V48     V47    10.0   1_455     S
V48     Er55    10.0   .     S
Er49     Er50    10.0   1_554     S
Er49     Er51    10.0   .     S
Er49     Er53    10.001   .     S
Er50     Er49    10.0   1_556     S
Er50     Er52    10.0   .     S
Er50     Er93    10.001   .     S
Er51     Er52    10.0   1_554     S
Er51     Er58    10.001   .     S
Er52     Er51    10.0   1_556     S
Er52     Er86    10.001   .     S
Er53     Er54    10.0   1_455     S
Er53     Er55    10.0   .     S
Er54     Er53    10.0   1_655     S
Er54     Er56    10.0   .     S
Er54     Er90    10.001   .     S
Er55     Er56    10.0   1_455     S
Er55     Er60    10.001   .     S
Er56     Er55    10.0   1_655     S
Er56     Er74    10.001   .     S
Er57     Er58    10.0   1_565     S
Er57     Er59    10.0   .     S
Er57     Er82    10.001   .     S
Er58     Er57    10.0   1_545     S
Er58     Er60    10.0   .     S
Er59     Er60    10.0   1_565     S
Er59     Er78    10.001   .     S
Er60     Er59    10.0   1_545     S
Er61     Er62    10.0   1_556     S
Er61     Er63    10.0   .     S
Er61     Er65    10.001   .     S
Er62     Er61    10.0   1_554     S
Er62     Er64    10.0   .     S
Er62     Er75    10.001   .     S
Er63     Er64    10.0   1_556     S
Er63     Er69    10.001   .     S
Er64     Er63    10.0   1_554     S
Er64     Er79    10.001   .     S
Er65     Er66    10.0   1_565     S
Er65     Er67    10.0   .     S
Er66     Er65    10.0   1_545     S
Er66     Er68    10.0   .     S
Er66     Er91    10.001   .     S
Er67     Er68    10.0   1_565     S
Er67     Er71    10.001   .     S
Er68     Er67    10.0   1_545     S
Er68     Er95    10.001   .     S
Er69     Er70    10.0   1_655     S
Er69     Er71    10.0   .     S
Er70     Er69    10.0   1_455     S
Er70     Er72    10.0   .     S
Er70     Er83    10.001   .     S
Er71     Er72    10.0   1_655     S
Er72     Er71    10.0   1_455     S
Er72     Er87    10.001   .     S
Er73     Er74    10.0   1_565     S
Er73     Er75    10.0   .     S
Er73     Er77    10.001   .     S
Er74     Er73    10.0   1_545     S
Er74     Er76    10.0   .     S
Er75     Er76    10.0   1_565     S
Er76     Er75    10.0   1_545     S
Er76     Er92    10.001   .     S
Er77     Er78    10.0   1_655     S
Er77     Er79    10.0   .     S
Er78     Er77    10.0   1_455     S
Er78     Er80    10.0   .     S
Er79     Er80    10.0   1_655     S
Er80     Er79    10.0   1_455     S
Er80     Er84    10.001   .     S
Er81     Er82    10.0   1_556     S
Er81     Er83    10.0   .     S
Er81     Er85    10.001   .     S
Er82     Er81    10.0   1_554     S
Er82     Er84    10.0   .     S
Er83     Er84    10.0   1_556     S
Er84     Er83    10.0   1_554     S
Er85     Er86    10.0   1_565     S
Er85     Er87    10.0   .     S
Er86     Er85    10.0   1_545     S
Er86     Er88    10.0   .     S
Er87     Er88    10.0   1_565     S
Er88     Er87    10.0   1_545     S
Er88     Er96    10.001   .     S
Er89     Er90    10.0   1_556     S
Er89     Er91    10.0   .     S
Er89     Er94    10.001   .     S
Er90     Er89    10.0   1_554     S
Er90     Er92    10.0   .     S
Er91     Er92    10.0   1_556     S
Er92     Er91    10.0   1_554     S
Er93     Er94    10.0   1_455     S
Er93     Er96    10.0   .     S
Er94     Er93    10.0   1_655     S
Er94     Er95    10.0   .     S
Er95     Er96    10.0   1_655     S
Er96     Er95    10.0   1_455     S
