data_fuv
_audit_creation_date              2020-02-02
_audit_creation_method            'Pymatgen'
_symmetry_space_group_name_H-M    'P1'
_symmetry_Int_Tables_number       1
loop_
_symmetry_equiv_pos_as_xyz
  x,y,z
_cell_length_a                    46.3896
_cell_length_b                    46.3896
_cell_length_c                    46.3896
_cell_angle_alpha                 90.0
_cell_angle_beta                 90.0
_cell_angle_gamma                 90.0
loop_
_atom_site_label
_atom_site_type_symbol
_atom_site_fract_x
_atom_site_fract_y
_atom_site_fract_z
Er1     Er     0.6078   0.6078   0.0
Er2     Er     0.6078   0.3922   0.0
Er3     Er     0.3922   0.3922   0.0
Er4     Er     0.3922   0.6078   0.0
Er5     Er     0.6078   0.0   0.6078
Er6     Er     0.6078   0.0   0.3922
Er7     Er     0.3922   0.0   0.3922
Er8     Er     0.3922   0.0   0.6078
Er9     Er     0.0   0.6078   0.6078
Er10     Er     0.0   0.6078   0.3922
Er11     Er     0.0   0.3922   0.3922
Er12     Er     0.0   0.3922   0.6078
V13     V     0.2602   0.7398   0.8922
V14     V     0.2602   0.7398   0.1078
V15     V     0.2602   0.8922   0.7398
V16     V     0.2602   0.1078   0.7398
V17     V     0.2602   0.2602   0.8922
V18     V     0.2602   0.2602   0.1078
V19     V     0.2602   0.8922   0.2602
V20     V     0.2602   0.1078   0.2602
V21     V     0.8922   0.2602   0.7398
V22     V     0.1078   0.2602   0.7398
V23     V     0.7398   0.2602   0.8922
V24     V     0.7398   0.2602   0.1078
V25     V     0.8922   0.2602   0.2602
V26     V     0.1078   0.2602   0.2602
V27     V     0.8922   0.7398   0.2602
V28     V     0.1078   0.7398   0.2602
V29     V     0.7398   0.8922   0.2602
V30     V     0.7398   0.1078   0.2602
V31     V     0.7398   0.7398   0.8922
V32     V     0.7398   0.7398   0.1078
V33     V     0.7398   0.8922   0.7398
V34     V     0.7398   0.1078   0.7398
V35     V     0.8922   0.7398   0.7398
V36     V     0.1078   0.7398   0.7398
loop_
_geom_bond_atom_site_label_1
_geom_bond_atom_site_label_2
_geom_bond_distance
_geom_bond_site_symmetry_2
_ccdc_geom_bond_type
Er1     Er2    10.0   .     S
Er1     Er4    10.0   .     S
Er1     V31    10.0   1_554     S
Er1     V32    10.0   .     S
Er2     Er3    10.0   .     S
Er2     V23    10.0   1_554     S
Er2     V24    10.0   .     S
Er3     Er4    10.0   .     S
Er3     V17    10.0   1_554     S
Er3     V18    10.0   .     S
Er4     V13    10.0   1_554     S
Er4     V14    10.0   .     S
Er5     Er6    10.0   .     S
Er5     Er8    10.0   .     S
Er5     V33    10.0   1_545     S
Er5     V34    10.0   .     S
Er6     Er7    10.0   .     S
Er6     V29    10.0   1_545     S
Er6     V30    10.0   .     S
Er7     Er8    10.0   .     S
Er7     V19    10.0   1_545     S
Er7     V20    10.0   .     S
Er8     V15    10.0   1_545     S
Er8     V16    10.0   .     S
Er9     Er10    10.0   .     S
Er9     Er12    10.0   .     S
Er9     V35    10.0   1_455     S
Er9     V36    10.0   .     S
Er10     Er11    10.0   .     S
Er10     V27    10.0   1_455     S
Er10     V28    10.0   .     S
Er11     Er12    10.0   .     S
Er11     V25    10.0   1_455     S
Er11     V26    10.0   .     S
Er12     V21    10.0   1_455     S
Er12     V22    10.0   .     S
V13     Er4    10.0   1_556     S
V13     V14    10.0   1_556     S
V13     V15    10.0   .     S
V13     V36    10.0   .     S
V14     V13    10.0   1_554     S
V14     V19    10.0   .     S
V14     V28    10.0   .     S
V15     V36    10.0   .     S
V15     Er8    10.0   1_565     S
V15     V16    10.0   1_565     S
V16     V15    10.0   1_545     S
V16     V17    10.0   .     S
V16     V22    10.0   .     S
V17     V22    10.0   .     S
V17     Er3    10.0   1_556     S
V17     V18    10.0   1_556     S
V18     V17    10.0   1_554     S
V18     V20    10.0   .     S
V18     V26    10.0   .     S
V19     V28    10.0   .     S
V19     Er7    10.0   1_565     S
V19     V20    10.0   1_565     S
V20     V19    10.0   1_545     S
V20     V26    10.0   .     S
V21     Er12    10.0   1_655     S
V21     V22    10.0   1_655     S
V21     V23    10.0   .     S
V21     V34    10.0   .     S
V22     V21    10.0   1_455     S
V23     V34    10.0   .     S
V23     Er2    10.0   1_556     S
V23     V24    10.0   1_556     S
V24     V23    10.0   1_554     S
V24     V25    10.0   .     S
V24     V30    10.0   .     S
V25     V30    10.0   .     S
V25     Er11    10.0   1_655     S
V25     V26    10.0   1_655     S
V26     V25    10.0   1_455     S
V27     Er10    10.0   1_655     S
V27     V28    10.0   1_655     S
V27     V29    10.0   .     S
V27     V32    10.0   .     S
V28     V27    10.0   1_455     S
V29     V32    10.0   .     S
V29     Er6    10.0   1_565     S
V29     V30    10.0   1_565     S
V30     V29    10.0   1_545     S
V31     Er1    10.0   1_556     S
V31     V32    10.0   1_556     S
V31     V35    10.0   .     S
V31     V33    10.0   .     S
V32     V31    10.0   1_554     S
V33     Er5    10.0   1_565     S
V33     V34    10.0   1_565     S
V33     V35    10.0   .     S
V34     V33    10.0   1_545     S
V35     Er9    10.0   1_655     S
V35     V36    10.0   1_655     S
V36     V35    10.0   1_455     S
