data_fuw
_audit_creation_date              2020-02-02
_audit_creation_method            'Pymatgen'
_symmetry_space_group_name_H-M    'P1'
_symmetry_Int_Tables_number       1
loop_
_symmetry_equiv_pos_as_xyz
  x,y,z
_cell_length_a                    96.5687
_cell_length_b                    96.5687
_cell_length_c                    96.5687
_cell_angle_alpha                 90.0
_cell_angle_beta                 90.0
_cell_angle_gamma                 90.0
loop_
_atom_site_label
_atom_site_type_symbol
_atom_site_fract_x
_atom_site_fract_y
_atom_site_fract_z
V1     V     0.9786   0.5518   0.625
V2     V     0.9786   0.625   0.6982
V3     V     0.9786   0.625   0.5518
V4     V     0.9786   0.6982   0.625
V5     V     0.9786   0.1982   0.125
V6     V     0.9786   0.125   0.1982
V7     V     0.9786   0.0518   0.125
V8     V     0.9786   0.125   0.0518
V9     V     0.6982   0.9786   0.625
V10     V     0.625   0.9786   0.6982
V11     V     0.625   0.9786   0.5518
V12     V     0.5518   0.9786   0.625
V13     V     0.125   0.9786   0.1982
V14     V     0.0518   0.9786   0.125
V15     V     0.125   0.9786   0.0518
V16     V     0.1982   0.9786   0.125
V17     V     0.2715   0.1982   0.125
V18     V     0.2715   0.125   0.1982
V19     V     0.2715   0.125   0.0518
V20     V     0.2715   0.0518   0.125
Er21     Er     0.3018   0.375   0.125
Er22     Er     0.4482   0.375   0.125
Er23     Er     0.375   0.3018   0.125
Er24     Er     0.375   0.4482   0.125
V25     V     0.3018   0.375   0.0214
V26     V     0.375   0.4482   0.0214
V27     V     0.4482   0.375   0.0214
V28     V     0.375   0.3018   0.0214
Er29     Er     0.375   0.125   0.1982
Er30     Er     0.375   0.0518   0.125
Er31     Er     0.375   0.125   0.0518
Er32     Er     0.375   0.1982   0.125
Er33     Er     0.3018   0.875   0.125
Er34     Er     0.375   0.8018   0.125
Er35     Er     0.4482   0.875   0.125
Er36     Er     0.375   0.9482   0.125
V37     V     0.375   0.9482   0.2286
V38     V     0.4482   0.875   0.2286
V39     V     0.3018   0.875   0.2286
V40     V     0.375   0.8018   0.2286
Er41     Er     0.375   0.625   0.0518
Er42     Er     0.375   0.5518   0.125
Er43     Er     0.375   0.625   0.1982
Er44     Er     0.375   0.6982   0.125
V45     V     0.4786   0.6982   0.125
V46     V     0.4786   0.625   0.1982
V47     V     0.4786   0.5518   0.125
V48     V     0.4786   0.625   0.0518
Er49     Er     0.875   0.625   0.1982
Er50     Er     0.875   0.5518   0.125
Er51     Er     0.875   0.625   0.0518
Er52     Er     0.875   0.6982   0.125
V53     V     0.7714   0.6982   0.125
V54     V     0.7714   0.625   0.0518
V55     V     0.7714   0.625   0.1982
V56     V     0.7714   0.5518   0.125
Er57     Er     0.1982   0.375   0.625
Er58     Er     0.125   0.375   0.5518
Er59     Er     0.125   0.375   0.6982
Er60     Er     0.0518   0.375   0.625
V61     V     0.125   0.4786   0.6982
V62     V     0.0518   0.4786   0.625
V63     V     0.1982   0.4786   0.625
V64     V     0.125   0.4786   0.5518
V65     V     0.0518   0.7714   0.625
V66     V     0.125   0.7714   0.6982
V67     V     0.125   0.7714   0.5518
V68     V     0.1982   0.7714   0.625
Er69     Er     0.125   0.875   0.5518
Er70     Er     0.1982   0.875   0.625
Er71     Er     0.125   0.875   0.6982
Er72     Er     0.0518   0.875   0.625
V73     V     0.625   0.6982   0.9786
V74     V     0.6982   0.625   0.9786
V75     V     0.5518   0.625   0.9786
V76     V     0.625   0.5518   0.9786
V77     V     0.6982   0.7714   0.125
V78     V     0.625   0.7714   0.0518
V79     V     0.5518   0.7714   0.125
V80     V     0.625   0.7714   0.1982
V81     V     0.3018   0.7286   0.375
V82     V     0.375   0.7286   0.3018
V83     V     0.375   0.7286   0.4482
V84     V     0.4482   0.7286   0.375
V85     V     0.4482   0.375   0.7286
V86     V     0.375   0.4482   0.7286
V87     V     0.375   0.3018   0.7286
V88     V     0.3018   0.375   0.7286
V89     V     0.2715   0.6982   0.625
V90     V     0.2715   0.625   0.6982
V91     V     0.2715   0.625   0.5518
V92     V     0.2715   0.5518   0.625
V93     V     0.7286   0.875   0.9482
V94     V     0.7286   0.8018   0.875
V95     V     0.7286   0.9482   0.875
V96     V     0.7286   0.875   0.8018
V97     V     0.125   0.1982   0.9786
V98     V     0.0518   0.125   0.9786
V99     V     0.125   0.0518   0.9786
V100     V     0.1982   0.125   0.9786
V101     V     0.7286   0.375   0.3018
V102     V     0.7286   0.4482   0.375
V103     V     0.7286   0.375   0.4482
V104     V     0.7286   0.3018   0.375
V105     V     0.9482   0.7286   0.875
V106     V     0.875   0.7286   0.9482
V107     V     0.875   0.7286   0.8018
V108     V     0.8018   0.7286   0.875
V109     V     0.8018   0.875   0.7286
V110     V     0.875   0.8018   0.7286
V111     V     0.9482   0.875   0.7286
V112     V     0.875   0.9482   0.7286
Er113     Er     0.875   0.5518   0.625
Er114     Er     0.875   0.625   0.6982
Er115     Er     0.875   0.6982   0.625
Er116     Er     0.875   0.625   0.5518
Er117     Er     0.5518   0.875   0.625
Er118     Er     0.625   0.875   0.5518
Er119     Er     0.6982   0.875   0.625
Er120     Er     0.625   0.875   0.6982
Er121     Er     0.375   0.5518   0.625
Er122     Er     0.375   0.625   0.6982
Er123     Er     0.375   0.625   0.5518
Er124     Er     0.375   0.6982   0.625
Er125     Er     0.5518   0.625   0.375
Er126     Er     0.625   0.5518   0.375
Er127     Er     0.625   0.6982   0.375
Er128     Er     0.6982   0.625   0.375
V129     V     0.5518   0.625   0.2715
V130     V     0.625   0.5518   0.2715
V131     V     0.625   0.6982   0.2715
V132     V     0.6982   0.625   0.2714
Er133     Er     0.625   0.5518   0.875
Er134     Er     0.5518   0.625   0.875
Er135     Er     0.625   0.6982   0.875
Er136     Er     0.6982   0.625   0.875
Er137     Er     0.625   0.875   0.9482
Er138     Er     0.625   0.9482   0.875
Er139     Er     0.625   0.875   0.8018
Er140     Er     0.625   0.8018   0.875
Er141     Er     0.5518   0.125   0.875
Er142     Er     0.625   0.0518   0.875
Er143     Er     0.6982   0.125   0.875
Er144     Er     0.625   0.1982   0.875
V145     V     0.625   0.1982   0.7714
V146     V     0.5518   0.125   0.7714
V147     V     0.625   0.0518   0.7714
V148     V     0.6982   0.125   0.7714
Er149     Er     0.625   0.375   0.9482
Er150     Er     0.625   0.375   0.8018
Er151     Er     0.625   0.4482   0.875
Er152     Er     0.625   0.3018   0.875
V153     V     0.5214   0.4482   0.875
V154     V     0.5214   0.375   0.8018
V155     V     0.5214   0.3018   0.875
V156     V     0.5214   0.375   0.9482
V157     V     0.5214   0.875   0.3018
V158     V     0.5214   0.9482   0.375
V159     V     0.5214   0.8018   0.375
V160     V     0.5214   0.875   0.4482
Er161     Er     0.625   0.875   0.3018
Er162     Er     0.625   0.9482   0.375
Er163     Er     0.625   0.875   0.4482
Er164     Er     0.625   0.8018   0.375
Er165     Er     0.5518   0.875   0.125
Er166     Er     0.625   0.875   0.0518
Er167     Er     0.6982   0.875   0.125
Er168     Er     0.625   0.875   0.1982
Er169     Er     0.5518   0.125   0.375
Er170     Er     0.6982   0.125   0.375
Er171     Er     0.625   0.0518   0.375
Er172     Er     0.625   0.1982   0.375
V173     V     0.625   0.1982   0.4786
V174     V     0.5518   0.125   0.4786
V175     V     0.625   0.0518   0.4786
V176     V     0.6982   0.125   0.4786
Er177     Er     0.5518   0.375   0.125
Er178     Er     0.6982   0.375   0.125
Er179     Er     0.625   0.375   0.0518
Er180     Er     0.625   0.375   0.1982
V181     V     0.625   0.4786   0.1982
V182     V     0.6982   0.4786   0.125
V183     V     0.625   0.4786   0.0518
V184     V     0.5518   0.4786   0.125
Er185     Er     0.625   0.3018   0.375
Er186     Er     0.625   0.4482   0.375
Er187     Er     0.625   0.375   0.4482
Er188     Er     0.625   0.375   0.3018
Er189     Er     0.625   0.375   0.5518
Er190     Er     0.5518   0.375   0.625
Er191     Er     0.6982   0.375   0.625
Er192     Er     0.625   0.375   0.6982
V193     V     0.5518   0.2715   0.625
V194     V     0.625   0.2715   0.5518
V195     V     0.6982   0.2715   0.625
V196     V     0.625   0.2714   0.6982
Er197     Er     0.8018   0.625   0.875
Er198     Er     0.875   0.625   0.9482
Er199     Er     0.9482   0.625   0.875
Er200     Er     0.875   0.625   0.8018
V201     V     0.375   0.5214   0.9482
V202     V     0.3018   0.5214   0.875
V203     V     0.375   0.5214   0.8018
V204     V     0.4482   0.5214   0.875
Er205     Er     0.375   0.625   0.9482
Er206     Er     0.4482   0.625   0.875
Er207     Er     0.3018   0.625   0.875
Er208     Er     0.375   0.625   0.8018
Er209     Er     0.1982   0.625   0.875
Er210     Er     0.125   0.5518   0.875
Er211     Er     0.0518   0.625   0.875
Er212     Er     0.125   0.6982   0.875
V213     V     0.125   0.5518   0.7714
V214     V     0.0518   0.625   0.7714
V215     V     0.125   0.6982   0.7714
V216     V     0.1982   0.625   0.7714
V217     V     0.0214   0.8018   0.875
V218     V     0.0214   0.875   0.8018
V219     V     0.0214   0.9482   0.875
V220     V     0.0214   0.875   0.9482
Er221     Er     0.125   0.875   0.8018
Er222     Er     0.125   0.9482   0.875
Er223     Er     0.125   0.875   0.9482
Er224     Er     0.125   0.8018   0.875
Er225     Er     0.9482   0.625   0.375
Er226     Er     0.8018   0.625   0.375
Er227     Er     0.875   0.625   0.4482
Er228     Er     0.875   0.625   0.3018
V229     V     0.875   0.5214   0.4482
V230     V     0.8018   0.5214   0.375
V231     V     0.875   0.5214   0.3018
V232     V     0.9482   0.5214   0.375
Er233     Er     0.375   0.625   0.4482
Er234     Er     0.4482   0.625   0.375
Er235     Er     0.375   0.625   0.3018
Er236     Er     0.3018   0.625   0.375
Er237     Er     0.125   0.5518   0.375
Er238     Er     0.125   0.6982   0.375
Er239     Er     0.0518   0.625   0.375
Er240     Er     0.1982   0.625   0.375
V241     V     0.1982   0.625   0.4786
V242     V     0.125   0.5518   0.4786
V243     V     0.125   0.6982   0.4786
V244     V     0.0518   0.625   0.4786
V245     V     0.2286   0.9482   0.375
V246     V     0.2286   0.875   0.3018
V247     V     0.2286   0.8018   0.375
V248     V     0.2286   0.875   0.4482
Er249     Er     0.1982   0.875   0.125
Er250     Er     0.0518   0.875   0.125
Er251     Er     0.125   0.875   0.0518
Er252     Er     0.125   0.875   0.1982
Er253     Er     0.125   0.875   0.3018
Er254     Er     0.125   0.9482   0.375
Er255     Er     0.125   0.875   0.4482
Er256     Er     0.125   0.8018   0.375
Er257     Er     0.375   0.9482   0.625
Er258     Er     0.3018   0.875   0.625
Er259     Er     0.375   0.8018   0.625
Er260     Er     0.4482   0.875   0.625
V261     V     0.4482   0.875   0.5214
V262     V     0.3018   0.875   0.5214
V263     V     0.375   0.8018   0.5214
V264     V     0.375   0.9482   0.5214
Er265     Er     0.3018   0.375   0.625
Er266     Er     0.4482   0.375   0.625
Er267     Er     0.375   0.4482   0.625
Er268     Er     0.375   0.3018   0.625
Er269     Er     0.375   0.125   0.6982
Er270     Er     0.375   0.0518   0.625
Er271     Er     0.375   0.125   0.5518
Er272     Er     0.375   0.1982   0.625
V273     V     0.4786   0.1982   0.625
V274     V     0.4786   0.125   0.6982
V275     V     0.4786   0.0518   0.625
V276     V     0.4786   0.125   0.5518
V277     V     0.375   0.2286   0.9482
V278     V     0.3018   0.2286   0.875
V279     V     0.375   0.2286   0.8018
V280     V     0.4482   0.2286   0.875
V281     V     0.2286   0.3018   0.875
V282     V     0.2286   0.4482   0.875
V283     V     0.2286   0.375   0.8018
V284     V     0.2286   0.375   0.9482
Er285     Er     0.375   0.125   0.9482
Er286     Er     0.3018   0.125   0.875
Er287     Er     0.4482   0.125   0.875
Er288     Er     0.375   0.125   0.8018
Er289     Er     0.0518   0.125   0.875
Er290     Er     0.125   0.0518   0.875
Er291     Er     0.125   0.1982   0.875
Er292     Er     0.1982   0.125   0.875
Er293     Er     0.125   0.375   0.9482
Er294     Er     0.125   0.375   0.8018
Er295     Er     0.125   0.4482   0.875
Er296     Er     0.125   0.3018   0.875
Er297     Er     0.875   0.8018   0.625
Er298     Er     0.9482   0.875   0.625
Er299     Er     0.875   0.9482   0.625
Er300     Er     0.8018   0.875   0.625
V301     V     0.9482   0.375   0.5214
V302     V     0.875   0.3018   0.5214
V303     V     0.8018   0.375   0.5214
V304     V     0.875   0.4482   0.5214
Er305     Er     0.9482   0.375   0.625
Er306     Er     0.875   0.3018   0.625
Er307     Er     0.875   0.4482   0.625
Er308     Er     0.8018   0.375   0.625
Er309     Er     0.875   0.125   0.6982
Er310     Er     0.875   0.0518   0.625
Er311     Er     0.875   0.125   0.5518
Er312     Er     0.875   0.1982   0.625
V313     V     0.7714   0.1982   0.625
V314     V     0.7714   0.125   0.5518
V315     V     0.7714   0.0518   0.625
V316     V     0.7714   0.125   0.6982
V317     V     0.875   0.0214   0.8018
V318     V     0.8018   0.0214   0.875
V319     V     0.875   0.0214   0.9482
V320     V     0.9482   0.0214   0.875
Er321     Er     0.9482   0.125   0.875
Er322     Er     0.875   0.125   0.9482
Er323     Er     0.8018   0.125   0.875
Er324     Er     0.875   0.125   0.8018
V325     V     0.8018   0.875   0.0214
V326     V     0.875   0.8018   0.0214
V327     V     0.9482   0.875   0.0214
V328     V     0.875   0.9482   0.0214
Er329     Er     0.875   0.8018   0.125
Er330     Er     0.9482   0.875   0.125
Er331     Er     0.875   0.9482   0.125
Er332     Er     0.8018   0.875   0.125
V333     V     0.9482   0.375   0.2286
V334     V     0.875   0.3018   0.2286
V335     V     0.8018   0.375   0.2286
V336     V     0.875   0.4482   0.2286
Er337     Er     0.875   0.125   0.0518
Er338     Er     0.875   0.125   0.1982
Er339     Er     0.875   0.0518   0.125
Er340     Er     0.875   0.1982   0.125
Er341     Er     0.875   0.4482   0.125
Er342     Er     0.8018   0.375   0.125
Er343     Er     0.9482   0.375   0.125
Er344     Er     0.875   0.3018   0.125
V345     V     0.125   0.2714   0.1982
V346     V     0.0518   0.2715   0.125
V347     V     0.125   0.2715   0.0518
V348     V     0.1982   0.2715   0.125
Er349     Er     0.1982   0.375   0.125
Er350     Er     0.0518   0.375   0.125
Er351     Er     0.125   0.375   0.0518
Er352     Er     0.125   0.375   0.1982
Er353     Er     0.125   0.375   0.3018
Er354     Er     0.125   0.4482   0.375
Er355     Er     0.125   0.3018   0.375
Er356     Er     0.125   0.375   0.4482
V357     V     0.0214   0.375   0.3018
V358     V     0.0214   0.4482   0.375
V359     V     0.0214   0.375   0.4482
V360     V     0.0214   0.3018   0.375
V361     V     0.3018   0.0214   0.375
V362     V     0.375   0.0214   0.3018
V363     V     0.375   0.0214   0.4482
V364     V     0.4482   0.0214   0.375
Er365     Er     0.375   0.125   0.4482
Er366     Er     0.4482   0.125   0.375
Er367     Er     0.3018   0.125   0.375
Er368     Er     0.375   0.125   0.3018
V369     V     0.125   0.1982   0.2715
V370     V     0.125   0.0518   0.2715
V371     V     0.0518   0.125   0.2715
V372     V     0.1982   0.125   0.2714
Er373     Er     0.1982   0.125   0.375
Er374     Er     0.0518   0.125   0.375
Er375     Er     0.125   0.0518   0.375
Er376     Er     0.125   0.1982   0.375
Er377     Er     0.9482   0.125   0.375
Er378     Er     0.875   0.125   0.4482
Er379     Er     0.875   0.125   0.3018
Er380     Er     0.8018   0.125   0.375
V381     V     0.875   0.2286   0.4482
V382     V     0.8018   0.2286   0.375
V383     V     0.875   0.2286   0.3018
V384     V     0.9482   0.2286   0.375
loop_
_geom_bond_atom_site_label_1
_geom_bond_atom_site_label_2
_geom_bond_distance
_geom_bond_site_symmetry_2
_ccdc_geom_bond_type
V1     Er113    10.0   .     S
V1     V2    10.0   .     S
V1     V3    10.0   .     S
V1     V62    10.001   1_655     S
V2     Er114    10.0   .     S
V2     V4    10.0   .     S
V2     V214    10.001   1_655     S
V3     Er116    10.0   .     S
V3     V4    10.0   .     S
V3     V244    10.001   1_655     S
V4     Er115    10.0   .     S
V4     V65    10.001   1_655     S
V5     Er340    10.0   .     S
V5     V6    10.0   .     S
V5     V8    10.0   .     S
V5     V346    10.001   1_655     S
V6     Er338    10.0   .     S
V6     V7    10.0   .     S
V6     V371    10.001   1_655     S
V7     Er339    10.0   .     S
V7     V8    10.0   .     S
V7     V14    10.001   1_645     S
V8     Er337    10.0   .     S
V8     V98    10.001   1_654     S
V9     Er119    10.0   .     S
V9     V11    10.0   .     S
V9     V10    10.0   .     S
V9     V315    10.001   1_565     S
V10     Er120    10.0   .     S
V10     V12    10.0   .     S
V10     V147    10.001   1_565     S
V11     Er118    10.0   .     S
V11     V12    10.0   .     S
V11     V175    10.001   1_565     S
V12     Er117    10.0   .     S
V12     V275    10.001   1_565     S
V13     Er252    10.0   .     S
V13     V16    10.0   .     S
V13     V14    10.0   .     S
V13     V370    10.001   1_565     S
V14     Er250    10.0   .     S
V14     V15    10.0   .     S
V14     V7    10.001   1_465     S
V15     Er251    10.0   .     S
V15     V16    10.0   .     S
V15     V99    10.001   1_564     S
V16     Er249    10.0   .     S
V16     V20    10.001   1_565     S
V17     Er32    10.0   .     S
V17     V18    10.0   .     S
V17     V19    10.0   .     S
V17     V348    10.001   .     S
V18     Er29    10.0   .     S
V18     V20    10.0   .     S
V18     V372    10.001   .     S
V19     Er31    10.0   .     S
V19     V20    10.0   .     S
V19     V100    10.001   1_554     S
V20     Er30    10.0   .     S
V20     V16    10.001   1_545     S
Er21     Er24    10.0   .     S
Er21     Er23    10.0   .     S
Er21     V25    10.0   .     S
Er21     Er349    10.001   .     S
Er22     Er24    10.0   .     S
Er22     Er23    10.0   .     S
Er22     V27    10.0   .     S
Er22     Er177    10.001   .     S
Er23     V28    10.0   .     S
Er23     Er32    10.001   .     S
Er24     V26    10.0   .     S
Er24     Er42    10.001   .     S
V25     V26    10.0   .     S
V25     V28    10.0   .     S
V25     V284    10.001   1_554     S
V26     V27    10.0   .     S
V26     V201    10.001   1_554     S
V27     V28    10.0   .     S
V27     V156    10.001   1_554     S
V28     V277    10.001   1_554     S
Er29     Er30    10.0   .     S
Er29     Er32    10.0   .     S
Er29     Er368    10.001   .     S
Er30     Er31    10.0   .     S
Er30     Er36    10.001   1_545     S
Er31     Er32    10.0   .     S
Er31     Er285    10.001   1_554     S
Er33     Er34    10.0   .     S
Er33     Er36    10.0   .     S
Er33     V39    10.0   .     S
Er33     Er249    10.001   .     S
Er34     Er35    10.0   .     S
Er34     V40    10.0   .     S
Er34     Er44    10.001   .     S
Er35     Er36    10.0   .     S
Er35     V38    10.0   .     S
Er35     Er165    10.001   .     S
Er36     Er30    10.001   1_565     S
Er36     V37    10.0   .     S
V37     V38    10.0   .     S
V37     V39    10.0   .     S
V37     V362    10.001   1_565     S
V38     V40    10.0   .     S
V38     V157    10.001   .     S
V39     V40    10.0   .     S
V39     V246    10.001   .     S
V40     V82    10.001   .     S
Er41     Er42    10.0   .     S
Er41     Er44    10.0   .     S
Er41     V48    10.0   .     S
Er41     Er205    10.001   1_554     S
Er42     Er43    10.0   .     S
Er42     V47    10.0   .     S
Er43     Er44    10.0   .     S
Er43     V46    10.0   .     S
Er43     Er235    10.001   .     S
Er44     V45    10.0   .     S
V45     V48    10.0   .     S
V45     V46    10.0   .     S
V45     V79    10.001   .     S
V46     V47    10.0   .     S
V46     V129    10.001   .     S
V47     V48    10.0   .     S
V47     V184    10.001   .     S
V48     V75    10.001   1_554     S
Er49     Er50    10.0   .     S
Er49     Er52    10.0   .     S
Er49     V55    10.0   .     S
Er49     Er228    10.001   .     S
Er50     Er51    10.0   .     S
Er50     V56    10.0   .     S
Er50     Er341    10.001   .     S
Er51     Er52    10.0   .     S
Er51     V54    10.0   .     S
Er51     Er198    10.001   1_554     S
Er52     V53    10.0   .     S
Er52     Er329    10.001   .     S
V53     V55    10.0   .     S
V53     V54    10.0   .     S
V53     V77    10.001   .     S
V54     V56    10.0   .     S
V54     V74    10.001   1_554     S
V55     V56    10.0   .     S
V55     V132    10.001   .     S
V56     V182    10.001   .     S
Er57     Er58    10.0   .     S
Er57     Er59    10.0   .     S
Er57     V63    10.0   .     S
Er57     Er265    10.001   .     S
Er58     Er60    10.0   .     S
Er58     V64    10.0   .     S
Er58     Er356    10.001   .     S
Er59     Er60    10.0   .     S
Er59     V61    10.0   .     S
Er59     Er294    10.001   .     S
Er60     V62    10.0   .     S
Er60     Er305    10.001   1_455     S
V61     V63    10.0   .     S
V61     V62    10.0   .     S
V61     V213    10.001   .     S
V62     V64    10.0   .     S
V62     V1    10.001   1_455     S
V63     V64    10.0   .     S
V63     V92    10.001   .     S
V64     V242    10.001   .     S
V65     Er72    10.0   .     S
V65     V67    10.0   .     S
V65     V66    10.0   .     S
V65     V4    10.001   1_455     S
V66     Er71    10.0   .     S
V66     V68    10.0   .     S
V66     V215    10.001   .     S
V67     Er69    10.0   .     S
V67     V68    10.0   .     S
V67     V243    10.001   .     S
V68     Er70    10.0   .     S
V68     V89    10.001   .     S
Er69     Er70    10.0   .     S
Er69     Er72    10.0   .     S
Er69     Er255    10.001   .     S
Er70     Er71    10.0   .     S
Er70     Er258    10.001   .     S
Er71     Er72    10.0   .     S
Er71     Er221    10.001   .     S
Er72     Er298    10.001   1_455     S
V73     Er135    10.0   .     S
V73     V75    10.0   .     S
V73     V74    10.0   .     S
V73     V78    10.001   1_556     S
V74     Er136    10.0   .     S
V74     V76    10.0   .     S
V74     V54    10.001   1_556     S
V75     Er134    10.0   .     S
V75     V76    10.0   .     S
V75     V48    10.001   1_556     S
V76     Er133    10.0   .     S
V76     V183    10.001   1_556     S
V77     Er167    10.0   .     S
V77     V78    10.0   .     S
V77     V80    10.0   .     S
V78     Er166    10.0   .     S
V78     V79    10.0   .     S
V78     V73    10.001   1_554     S
V79     Er165    10.0   .     S
V79     V80    10.0   .     S
V80     Er168    10.0   .     S
V80     V131    10.001   .     S
V81     Er236    10.0   .     S
V81     V82    10.0   .     S
V81     V83    10.0   .     S
V81     V247    10.001   .     S
V82     Er235    10.0   .     S
V82     V84    10.0   .     S
V83     Er233    10.0   .     S
V83     V84    10.0   .     S
V83     V263    10.001   .     S
V84     Er234    10.0   .     S
V84     V159    10.001   .     S
V85     Er266    10.0   .     S
V85     V86    10.0   .     S
V85     V87    10.0   .     S
V85     V154    10.001   .     S
V86     Er267    10.0   .     S
V86     V88    10.0   .     S
V86     V203    10.001   .     S
V87     Er268    10.0   .     S
V87     V88    10.0   .     S
V87     V279    10.001   .     S
V88     Er265    10.0   .     S
V88     V283    10.001   .     S
V89     Er124    10.0   .     S
V89     V90    10.0   .     S
V89     V91    10.0   .     S
V90     Er122    10.0   .     S
V90     V92    10.0   .     S
V90     V216    10.001   .     S
V91     Er123    10.0   .     S
V91     V92    10.0   .     S
V91     V241    10.001   .     S
V92     Er121    10.0   .     S
V93     Er137    10.0   .     S
V93     V94    10.0   .     S
V93     V95    10.0   .     S
V93     V325    10.001   1_556     S
V94     Er140    10.0   .     S
V94     V96    10.0   .     S
V94     V108    10.001   .     S
V95     Er138    10.0   .     S
V95     V96    10.0   .     S
V95     V318    10.001   1_565     S
V96     Er139    10.0   .     S
V96     V109    10.001   .     S
V97     Er291    10.0   .     S
V97     V98    10.0   .     S
V97     V100    10.0   .     S
V97     V347    10.001   1_556     S
V98     Er289    10.0   .     S
V98     V99    10.0   .     S
V98     V8    10.001   1_456     S
V99     Er290    10.0   .     S
V99     V100    10.0   .     S
V99     V15    10.001   1_546     S
V100     Er292    10.0   .     S
V100     V19    10.001   1_556     S
V101     Er188    10.0   .     S
V101     V102    10.0   .     S
V101     V104    10.0   .     S
V101     V335    10.001   .     S
V102     Er186    10.0   .     S
V102     V103    10.0   .     S
V102     V230    10.001   .     S
V103     Er187    10.0   .     S
V103     V104    10.0   .     S
V103     V303    10.001   .     S
V104     Er185    10.0   .     S
V104     V382    10.001   .     S
V105     Er199    10.0   .     S
V105     V107    10.0   .     S
V105     V106    10.0   .     S
V105     V217    10.001   1_655     S
V106     Er198    10.0   .     S
V106     V108    10.0   .     S
V106     V326    10.001   1_556     S
V107     Er200    10.0   .     S
V107     V108    10.0   .     S
V107     V110    10.001   .     S
V108     Er197    10.0   .     S
V109     Er300    10.0   .     S
V109     V110    10.0   .     S
V109     V112    10.0   .     S
V110     Er297    10.0   .     S
V110     V111    10.0   .     S
V111     Er298    10.0   .     S
V111     V112    10.0   .     S
V111     V218    10.001   1_655     S
V112     Er299    10.0   .     S
V112     V317    10.001   1_565     S
Er113     Er116    10.0   .     S
Er113     Er114    10.0   .     S
Er113     Er307    10.001   .     S
Er114     Er115    10.0   .     S
Er114     Er200    10.001   .     S
Er115     Er116    10.0   .     S
Er115     Er297    10.001   .     S
Er116     Er227    10.001   .     S
Er117     Er120    10.0   .     S
Er117     Er118    10.0   .     S
Er117     Er260    10.001   .     S
Er118     Er119    10.0   .     S
Er118     Er163    10.001   .     S
Er119     Er120    10.0   .     S
Er119     Er300    10.001   .     S
Er120     Er139    10.001   .     S
Er121     Er122    10.0   .     S
Er121     Er123    10.0   .     S
Er121     Er267    10.001   .     S
Er122     Er124    10.0   .     S
Er122     Er208    10.001   .     S
Er123     Er124    10.0   .     S
Er123     Er233    10.001   .     S
Er124     Er259    10.001   .     S
Er125     Er127    10.0   .     S
Er125     Er126    10.0   .     S
Er125     V129    10.0   .     S
Er125     Er234    10.001   .     S
Er126     Er128    10.0   .     S
Er126     V130    10.0   .     S
Er126     Er186    10.001   .     S
Er127     Er128    10.0   .     S
Er127     V131    10.0   .     S
Er127     Er164    10.001   .     S
Er128     V132    10.0   .     S
Er128     Er226    10.001   .     S
V129     V130    10.0   .     S
V129     V131    10.0   .     S
V130     V132    10.0   .     S
V130     V181    10.001   .     S
V131     V132    10.0   .     S
Er133     Er136    10.0   .     S
Er133     Er134    10.0   .     S
Er133     Er151    10.001   .     S
Er134     Er135    10.0   .     S
Er134     Er206    10.001   .     S
Er135     Er136    10.0   .     S
Er135     Er140    10.001   .     S
Er136     Er197    10.001   .     S
Er137     Er140    10.0   .     S
Er137     Er138    10.0   .     S
Er137     Er166    10.001   1_556     S
Er138     Er139    10.0   .     S
Er138     Er142    10.001   1_565     S
Er139     Er140    10.0   .     S
Er141     Er144    10.0   .     S
Er141     Er142    10.0   .     S
Er141     V146    10.0   .     S
Er141     Er287    10.001   .     S
Er142     Er143    10.0   .     S
Er142     V147    10.0   .     S
Er142     Er138    10.001   1_545     S
Er143     Er144    10.0   .     S
Er143     V148    10.0   .     S
Er143     Er323    10.001   .     S
Er144     V145    10.0   .     S
Er144     Er152    10.001   .     S
V145     V146    10.0   .     S
V145     V148    10.0   .     S
V145     V196    10.001   .     S
V146     V147    10.0   .     S
V146     V274    10.001   .     S
V147     V148    10.0   .     S
V147     V10    10.001   1_545     S
V148     V316    10.001   .     S
Er149     Er151    10.0   .     S
Er149     Er152    10.0   .     S
Er149     V156    10.0   .     S
Er149     Er179    10.001   1_556     S
Er150     Er151    10.0   .     S
Er150     Er152    10.0   .     S
Er150     V154    10.0   .     S
Er150     Er192    10.001   .     S
Er151     V153    10.0   .     S
Er152     V155    10.0   .     S
V153     V154    10.0   .     S
V153     V156    10.0   .     S
V153     V204    10.001   .     S
V154     V155    10.0   .     S
V155     V156    10.0   .     S
V155     V280    10.001   .     S
V156     V27    10.001   1_556     S
V157     Er161    10.0   .     S
V157     V159    10.0   .     S
V157     V158    10.0   .     S
V158     Er162    10.0   .     S
V158     V160    10.0   .     S
V158     V364    10.001   1_565     S
V159     Er164    10.0   .     S
V159     V160    10.0   .     S
V160     Er163    10.0   .     S
V160     V261    10.001   .     S
Er161     Er164    10.0   .     S
Er161     Er162    10.0   .     S
Er161     Er168    10.001   .     S
Er162     Er163    10.0   .     S
Er162     Er171    10.001   1_565     S
Er163     Er164    10.0   .     S
Er165     Er166    10.0   .     S
Er165     Er168    10.0   .     S
Er166     Er167    10.0   .     S
Er166     Er137    10.001   1_554     S
Er167     Er168    10.0   .     S
Er167     Er332    10.001   .     S
Er169     Er171    10.0   .     S
Er169     Er172    10.0   .     S
Er169     V174    10.0   .     S
Er169     Er366    10.001   .     S
Er170     Er172    10.0   .     S
Er170     Er171    10.0   .     S
Er170     V176    10.0   .     S
Er170     Er380    10.001   .     S
Er171     V175    10.0   .     S
Er171     Er162    10.001   1_545     S
Er172     V173    10.0   .     S
Er172     Er185    10.001   .     S
V173     V174    10.0   .     S
V173     V176    10.0   .     S
V173     V194    10.001   .     S
V174     V175    10.0   .     S
V174     V276    10.001   .     S
V175     V176    10.0   .     S
V175     V11    10.001   1_545     S
V176     V314    10.001   .     S
Er177     Er179    10.0   .     S
Er177     Er180    10.0   .     S
Er177     V184    10.0   .     S
Er178     Er180    10.0   .     S
Er178     Er179    10.0   .     S
Er178     V182    10.0   .     S
Er178     Er342    10.001   .     S
Er179     V183    10.0   .     S
Er179     Er149    10.001   1_554     S
Er180     V181    10.0   .     S
Er180     Er188    10.001   .     S
V181     V184    10.0   .     S
V181     V182    10.0   .     S
V182     V183    10.0   .     S
V183     V184    10.0   .     S
V183     V76    10.001   1_554     S
Er185     Er187    10.0   .     S
Er185     Er188    10.0   .     S
Er186     Er187    10.0   .     S
Er186     Er188    10.0   .     S
Er187     Er189    10.001   .     S
Er189     Er191    10.0   .     S
Er189     Er190    10.0   .     S
Er189     V194    10.0   .     S
Er190     Er192    10.0   .     S
Er190     V193    10.0   .     S
Er190     Er266    10.001   .     S
Er191     Er192    10.0   .     S
Er191     V195    10.0   .     S
Er191     Er308    10.001   .     S
Er192     V196    10.0   .     S
V193     V194    10.0   .     S
V193     V196    10.0   .     S
V193     V273    10.001   .     S
V194     V195    10.0   .     S
V195     V196    10.0   .     S
V195     V313    10.001   .     S
Er197     Er200    10.0   .     S
Er197     Er198    10.0   .     S
Er198     Er51    10.001   1_556     S
Er198     Er199    10.0   .     S
Er199     Er200    10.0   .     S
Er199     Er211    10.001   1_655     S
V201     Er205    10.0   .     S
V201     V204    10.0   .     S
V201     V202    10.0   .     S
V201     V26    10.001   1_556     S
V202     Er207    10.0   .     S
V202     V203    10.0   .     S
V202     V282    10.001   .     S
V203     Er208    10.0   .     S
V203     V204    10.0   .     S
V204     Er206    10.0   .     S
Er205     Er41    10.001   1_556     S
Er205     Er206    10.0   .     S
Er205     Er207    10.0   .     S
Er206     Er208    10.0   .     S
Er207     Er208    10.0   .     S
Er207     Er209    10.001   .     S
Er209     Er212    10.0   .     S
Er209     Er210    10.0   .     S
Er209     V216    10.0   .     S
Er210     Er211    10.0   .     S
Er210     V213    10.0   .     S
Er210     Er295    10.001   .     S
Er211     Er212    10.0   .     S
Er211     V214    10.0   .     S
Er211     Er199    10.001   1_455     S
Er212     V215    10.0   .     S
Er212     Er224    10.001   .     S
V213     V214    10.0   .     S
V213     V216    10.0   .     S
V214     V215    10.0   .     S
V214     V2    10.001   1_455     S
V215     V216    10.0   .     S
V217     Er224    10.0   .     S
V217     V218    10.0   .     S
V217     V220    10.0   .     S
V217     V105    10.001   1_455     S
V218     Er221    10.0   .     S
V218     V219    10.0   .     S
V218     V111    10.001   1_455     S
V219     Er222    10.0   .     S
V219     V220    10.0   .     S
V219     V320    10.001   1_465     S
V220     Er223    10.0   .     S
V220     V327    10.001   1_456     S
Er221     Er224    10.0   .     S
Er221     Er222    10.0   .     S
Er222     Er223    10.0   .     S
Er222     Er290    10.001   1_565     S
Er223     Er224    10.0   .     S
Er223     Er251    10.001   1_556     S
Er225     Er227    10.0   .     S
Er225     Er228    10.0   .     S
Er225     V232    10.0   .     S
Er225     Er239    10.001   1_655     S
Er226     Er227    10.0   .     S
Er226     Er228    10.0   .     S
Er226     V230    10.0   .     S
Er227     V229    10.0   .     S
Er228     V231    10.0   .     S
V229     V230    10.0   .     S
V229     V232    10.0   .     S
V229     V304    10.001   .     S
V230     V231    10.0   .     S
V231     V232    10.0   .     S
V231     V336    10.001   .     S
V232     V358    10.001   1_655     S
Er233     Er236    10.0   .     S
Er233     Er234    10.0   .     S
Er234     Er235    10.0   .     S
Er235     Er236    10.0   .     S
Er236     Er240    10.001   .     S
Er237     Er239    10.0   .     S
Er237     Er240    10.0   .     S
Er237     V242    10.0   .     S
Er237     Er354    10.001   .     S
Er238     Er240    10.0   .     S
Er238     Er239    10.0   .     S
Er238     V243    10.0   .     S
Er238     Er256    10.001   .     S
Er239     V244    10.0   .     S
Er239     Er225    10.001   1_455     S
Er240     V241    10.0   .     S
V241     V242    10.0   .     S
V241     V243    10.0   .     S
V242     V244    10.0   .     S
V243     V244    10.0   .     S
V244     V3    10.001   1_455     S
V245     Er254    10.0   .     S
V245     V248    10.0   .     S
V245     V246    10.0   .     S
V245     V361    10.001   1_565     S
V246     Er253    10.0   .     S
V246     V247    10.0   .     S
V247     Er256    10.0   .     S
V247     V248    10.0   .     S
V248     Er255    10.0   .     S
V248     V262    10.001   .     S
Er249     Er252    10.0   .     S
Er249     Er251    10.0   .     S
Er250     Er252    10.0   .     S
Er250     Er251    10.0   .     S
Er250     Er330    10.001   1_455     S
Er251     Er223    10.001   1_554     S
Er252     Er253    10.001   .     S
Er253     Er256    10.0   .     S
Er253     Er254    10.0   .     S
Er254     Er255    10.0   .     S
Er254     Er375    10.001   1_565     S
Er255     Er256    10.0   .     S
Er257     Er260    10.0   .     S
Er257     Er258    10.0   .     S
Er257     V264    10.0   .     S
Er257     Er270    10.001   1_565     S
Er258     Er259    10.0   .     S
Er258     V262    10.0   .     S
Er259     Er260    10.0   .     S
Er259     V263    10.0   .     S
Er260     V261    10.0   .     S
V261     V263    10.0   .     S
V261     V264    10.0   .     S
V262     V263    10.0   .     S
V262     V264    10.0   .     S
V264     V363    10.001   1_565     S
Er265     Er267    10.0   .     S
Er265     Er268    10.0   .     S
Er266     Er268    10.0   .     S
Er266     Er267    10.0   .     S
Er268     Er272    10.001   .     S
Er269     Er272    10.0   .     S
Er269     Er270    10.0   .     S
Er269     V274    10.0   .     S
Er269     Er288    10.001   .     S
Er270     Er271    10.0   .     S
Er270     V275    10.0   .     S
Er270     Er257    10.001   1_545     S
Er271     Er272    10.0   .     S
Er271     V276    10.0   .     S
Er271     Er365    10.001   .     S
Er272     V273    10.0   .     S
V273     V276    10.0   .     S
V273     V274    10.0   .     S
V274     V275    10.0   .     S
V275     V276    10.0   .     S
V275     V12    10.001   1_545     S
V277     Er285    10.0   .     S
V277     V280    10.0   .     S
V277     V278    10.0   .     S
V277     V28    10.001   1_556     S
V278     Er286    10.0   .     S
V278     V279    10.0   .     S
V278     V281    10.001   .     S
V279     Er288    10.0   .     S
V279     V280    10.0   .     S
V280     Er287    10.0   .     S
V281     Er296    10.0   .     S
V281     V283    10.0   .     S
V281     V284    10.0   .     S
V282     Er295    10.0   .     S
V282     V283    10.0   .     S
V282     V284    10.0   .     S
V283     Er294    10.0   .     S
V284     Er293    10.0   .     S
V284     V25    10.001   1_556     S
Er285     Er31    10.001   1_556     S
Er285     Er287    10.0   .     S
Er285     Er286    10.0   .     S
Er286     Er288    10.0   .     S
Er286     Er292    10.001   .     S
Er287     Er288    10.0   .     S
Er289     Er291    10.0   .     S
Er289     Er290    10.0   .     S
Er289     Er321    10.001   1_455     S
Er290     Er292    10.0   .     S
Er290     Er222    10.001   1_545     S
Er291     Er292    10.0   .     S
Er291     Er296    10.001   .     S
Er293     Er295    10.0   .     S
Er293     Er296    10.0   .     S
Er293     Er351    10.001   1_556     S
Er294     Er295    10.0   .     S
Er294     Er296    10.0   .     S
Er297     Er300    10.0   .     S
Er297     Er298    10.0   .     S
Er298     Er72    10.001   1_655     S
Er298     Er299    10.0   .     S
Er299     Er300    10.0   .     S
Er299     Er310    10.001   1_565     S
V301     Er305    10.0   .     S
V301     V304    10.0   .     S
V301     V302    10.0   .     S
V301     V359    10.001   1_655     S
V302     Er306    10.0   .     S
V302     V303    10.0   .     S
V302     V381    10.001   .     S
V303     Er308    10.0   .     S
V303     V304    10.0   .     S
V304     Er307    10.0   .     S
Er305     Er60    10.001   1_655     S
Er305     Er307    10.0   .     S
Er305     Er306    10.0   .     S
Er306     Er308    10.0   .     S
Er306     Er312    10.001   .     S
Er307     Er308    10.0   .     S
Er309     Er310    10.0   .     S
Er309     Er312    10.0   .     S
Er309     V316    10.0   .     S
Er309     Er324    10.001   .     S
Er310     Er311    10.0   .     S
Er310     V315    10.0   .     S
Er310     Er299    10.001   1_545     S
Er311     Er312    10.0   .     S
Er311     V314    10.0   .     S
Er311     Er378    10.001   .     S
Er312     V313    10.0   .     S
V313     V316    10.0   .     S
V313     V314    10.0   .     S
V314     V315    10.0   .     S
V315     V316    10.0   .     S
V315     V9    10.001   1_545     S
V317     Er324    10.0   .     S
V317     V318    10.0   .     S
V317     V320    10.0   .     S
V317     V112    10.001   1_545     S
V318     Er323    10.0   .     S
V318     V319    10.0   .     S
V318     V95    10.001   1_545     S
V319     Er322    10.0   .     S
V319     V320    10.0   .     S
V319     V328    10.001   1_546     S
V320     Er321    10.0   .     S
V320     V219    10.001   1_645     S
Er321     Er289    10.001   1_655     S
Er321     Er324    10.0   .     S
Er321     Er322    10.0   .     S
Er322     Er323    10.0   .     S
Er322     Er337    10.001   1_556     S
Er323     Er324    10.0   .     S
V325     Er332    10.0   .     S
V325     V326    10.0   .     S
V325     V328    10.0   .     S
V325     V93    10.001   1_554     S
V326     Er329    10.0   .     S
V326     V327    10.0   .     S
V326     V106    10.001   1_554     S
V327     Er330    10.0   .     S
V327     V328    10.0   .     S
V327     V220    10.001   1_654     S
V328     Er331    10.0   .     S
V328     V319    10.001   1_564     S
Er329     Er332    10.0   .     S
Er329     Er330    10.0   .     S
Er330     Er250    10.001   1_655     S
Er330     Er331    10.0   .     S
Er331     Er332    10.0   .     S
Er331     Er339    10.001   1_565     S
V333     Er343    10.0   .     S
V333     V336    10.0   .     S
V333     V334    10.0   .     S
V333     V357    10.001   1_655     S
V334     Er344    10.0   .     S
V334     V335    10.0   .     S
V334     V383    10.001   .     S
V335     Er342    10.0   .     S
V335     V336    10.0   .     S
V336     Er341    10.0   .     S
Er337     Er339    10.0   .     S
Er337     Er340    10.0   .     S
Er337     Er322    10.001   1_554     S
Er338     Er340    10.0   .     S
Er338     Er339    10.0   .     S
Er338     Er379    10.001   .     S
Er339     Er331    10.001   1_545     S
Er340     Er344    10.001   .     S
Er341     Er342    10.0   .     S
Er341     Er343    10.0   .     S
Er342     Er344    10.0   .     S
Er343     Er344    10.0   .     S
Er343     Er350    10.001   1_655     S
V345     Er352    10.0   .     S
V345     V348    10.0   .     S
V345     V346    10.0   .     S
V345     V369    10.001   .     S
V346     Er350    10.0   .     S
V346     V347    10.0   .     S
V346     V5    10.001   1_455     S
V347     Er351    10.0   .     S
V347     V348    10.0   .     S
V347     V97    10.001   1_554     S
V348     Er349    10.0   .     S
Er349     Er351    10.0   .     S
Er349     Er352    10.0   .     S
Er350     Er352    10.0   .     S
Er350     Er351    10.0   .     S
Er350     Er343    10.001   1_455     S
Er351     Er293    10.001   1_554     S
Er352     Er353    10.001   .     S
Er353     Er354    10.0   .     S
Er353     Er355    10.0   .     S
Er353     V357    10.0   .     S
Er354     Er356    10.0   .     S
Er354     V358    10.0   .     S
Er355     Er356    10.0   .     S
Er355     V360    10.0   .     S
Er355     Er376    10.001   .     S
Er356     V359    10.0   .     S
V357     V358    10.0   .     S
V357     V360    10.0   .     S
V357     V333    10.001   1_455     S
V358     V359    10.0   .     S
V358     V232    10.001   1_455     S
V359     V360    10.0   .     S
V359     V301    10.001   1_455     S
V360     V384    10.001   1_455     S
V361     Er367    10.0   .     S
V361     V363    10.0   .     S
V361     V362    10.0   .     S
V361     V245    10.001   1_545     S
V362     Er368    10.0   .     S
V362     V364    10.0   .     S
V362     V37    10.001   1_545     S
V363     Er365    10.0   .     S
V363     V364    10.0   .     S
V363     V264    10.001   1_545     S
V364     Er366    10.0   .     S
V364     V158    10.001   1_545     S
Er365     Er366    10.0   .     S
Er365     Er367    10.0   .     S
Er366     Er368    10.0   .     S
Er367     Er368    10.0   .     S
Er367     Er373    10.001   .     S
V369     Er376    10.0   .     S
V369     V371    10.0   .     S
V369     V372    10.0   .     S
V370     Er375    10.0   .     S
V370     V371    10.0   .     S
V370     V372    10.0   .     S
V370     V13    10.001   1_545     S
V371     Er374    10.0   .     S
V371     V6    10.001   1_455     S
V372     Er373    10.0   .     S
Er373     Er376    10.0   .     S
Er373     Er375    10.0   .     S
Er374     Er376    10.0   .     S
Er374     Er375    10.0   .     S
Er374     Er377    10.001   1_455     S
Er375     Er254    10.001   1_545     S
Er377     Er374    10.001   1_655     S
Er377     Er378    10.0   .     S
Er377     Er379    10.0   .     S
Er377     V384    10.0   .     S
Er378     Er380    10.0   .     S
Er378     V381    10.0   .     S
Er379     Er380    10.0   .     S
Er379     V383    10.0   .     S
Er380     V382    10.0   .     S
V381     V382    10.0   .     S
V381     V384    10.0   .     S
V382     V383    10.0   .     S
V383     V384    10.0   .     S
V384     V360    10.001   1_655     S
