data_gata
_audit_creation_date              2020-02-02
_audit_creation_method            'Pymatgen'
_symmetry_space_group_name_H-M    'P1'
_symmetry_Int_Tables_number       1
loop_
_symmetry_equiv_pos_as_xyz
  x,y,z
_cell_length_a                    133.3185
_cell_length_b                    133.3185
_cell_length_c                    133.3185
_cell_angle_alpha                 90.0
_cell_angle_beta                 90.0
_cell_angle_gamma                 90.0
loop_
_atom_site_label
_atom_site_type_symbol
_atom_site_fract_x
_atom_site_fract_y
_atom_site_fract_z
Ti1     Ti     0.6976   0.8694   0.0
Ti2     Ti     0.75   0.8806   0.9476
Ti3     Ti     0.8024   0.8694   0.0
Ti4     Ti     0.75   0.8806   0.0524
Ti5     Ti     0.0524   0.75   0.3806
Ti6     Ti     0.9476   0.75   0.3806
Ti7     Ti     0.0   0.8024   0.3694
Ti8     Ti     0.0   0.6976   0.3694
Ti9     Ti     0.1194   0.5524   0.75
Ti10     Ti     0.1194   0.4476   0.75
Ti11     Ti     0.1306   0.5   0.8024
Ti12     Ti     0.1306   0.5   0.6976
Ti13     Ti     0.75   0.1194   0.5524
Ti14     Ti     0.75   0.1194   0.4476
Ti15     Ti     0.8024   0.1306   0.5
Ti16     Ti     0.6976   0.1306   0.5
Ti17     Ti     0.6194   0.5524   0.75
Ti18     Ti     0.6194   0.4476   0.75
Ti19     Ti     0.6306   0.5   0.6976
Ti20     Ti     0.6306   0.5   0.8024
Ti21     Ti     0.3024   0.1306   0.0
Ti22     Ti     0.1976   0.1306   0.0
Ti23     Ti     0.25   0.1194   0.0524
Ti24     Ti     0.25   0.1194   0.9476
Ti25     Ti     0.5524   0.75   0.6194
Ti26     Ti     0.4476   0.75   0.6194
Ti27     Ti     0.5   0.8024   0.6306
Ti28     Ti     0.5   0.6976   0.6306
Ti29     Ti     0.0   0.3024   0.6306
Ti30     Ti     0.0   0.1976   0.6306
Ti31     Ti     0.0524   0.25   0.6194
Ti32     Ti     0.9476   0.25   0.6194
Ti33     Ti     0.0   0.3024   0.1306
Ti34     Ti     0.0   0.1976   0.1306
Ti35     Ti     0.0524   0.25   0.1194
Ti36     Ti     0.9476   0.25   0.1194
Ti37     Ti     0.6306   0.0   0.3024
Ti38     Ti     0.6194   0.0524   0.25
Ti39     Ti     0.6306   0.0   0.1976
Ti40     Ti     0.6194   0.9476   0.25
Ti41     Ti     0.1306   0.0   0.3024
Ti42     Ti     0.1306   0.0   0.1976
Ti43     Ti     0.1194   0.0524   0.25
Ti44     Ti     0.1194   0.9476   0.25
Ti45     Ti     0.8806   0.0524   0.75
Ti46     Ti     0.8806   0.9476   0.75
Ti47     Ti     0.8694   0.0   0.8024
Ti48     Ti     0.8694   0.0   0.6976
Ti49     Ti     0.0524   0.75   0.8806
Ti50     Ti     0.9476   0.75   0.8806
Ti51     Ti     0.0   0.8024   0.8694
Ti52     Ti     0.0   0.6976   0.8694
Ti53     Ti     0.1976   0.6306   0.0
Ti54     Ti     0.25   0.6194   0.9476
Ti55     Ti     0.3024   0.6306   0.0
Ti56     Ti     0.25   0.6194   0.0524
Ti57     Ti     0.3806   0.5524   0.25
Ti58     Ti     0.3806   0.4476   0.25
Ti59     Ti     0.3694   0.5   0.3024
Ti60     Ti     0.3694   0.5   0.1976
Ti61     Ti     0.5524   0.75   0.1194
Ti62     Ti     0.4476   0.75   0.1194
Ti63     Ti     0.5   0.8024   0.1306
Ti64     Ti     0.5   0.6976   0.1306
Ti65     Ti     0.3694   0.0   0.6976
Ti66     Ti     0.3806   0.9476   0.75
Ti67     Ti     0.3694   0.0   0.8024
Ti68     Ti     0.3806   0.0525   0.75
Ti69     Ti     0.8024   0.3694   0.0
Ti70     Ti     0.75   0.3806   0.9476
Ti71     Ti     0.6976   0.3694   0.0
Ti72     Ti     0.75   0.3806   0.0525
Ti73     Ti     0.6976   0.6306   0.5
Ti74     Ti     0.75   0.6194   0.5524
Ti75     Ti     0.75   0.6194   0.4475
Ti76     Ti     0.8024   0.6306   0.5
Ti77     Ti     0.25   0.3806   0.5524
Ti78     Ti     0.25   0.3806   0.4476
Ti79     Ti     0.3024   0.3694   0.5
Ti80     Ti     0.1976   0.3694   0.5
Ti81     Ti     0.5524   0.25   0.3806
Ti82     Ti     0.4476   0.25   0.3806
Ti83     Ti     0.5   0.3024   0.3694
Ti84     Ti     0.5   0.1976   0.3694
Ti85     Ti     0.5524   0.25   0.8806
Ti86     Ti     0.4476   0.25   0.8806
Ti87     Ti     0.5   0.3024   0.8694
Ti88     Ti     0.5   0.1976   0.8694
Ti89     Ti     0.25   0.8806   0.5524
Ti90     Ti     0.25   0.8806   0.4476
Ti91     Ti     0.3024   0.8694   0.5
Ti92     Ti     0.1975   0.8694   0.5
Ti93     Ti     0.8806   0.5524   0.25
Ti94     Ti     0.8806   0.4476   0.25
Ti95     Ti     0.8694   0.5   0.3024
Ti96     Ti     0.8694   0.5   0.1975
Ce97     Ce     0.6295   0.3565   0.0288
Ce98     Ce     0.1435   0.0288   0.3705
Ce99     Ce     0.3705   0.1435   0.0288
Ce100     Ce     0.9712   0.3705   0.6435
Ce101     Ce     0.6435   0.9712   0.3705
Ce102     Ce     0.5288   0.1295   0.8565
Ce103     Ce     0.8565   0.5288   0.1295
Ce104     Ce     0.0288   0.3705   0.1435
Ce105     Ce     0.3705   0.6435   0.9712
Ce106     Ce     0.3565   0.0288   0.6295
Ce107     Ce     0.9712   0.8705   0.3565
Ce108     Ce     0.8705   0.3565   0.9712
Ce109     Ce     0.0288   0.6295   0.3565
Ce110     Ce     0.3795   0.2788   0.8935
Ce111     Ce     0.8935   0.3795   0.2788
Ce112     Ce     0.1205   0.2212   0.6065
Ce113     Ce     0.6065   0.1205   0.2212
Ce114     Ce     0.9712   0.1295   0.1435
Ce115     Ce     0.1435   0.9712   0.1295
Ce116     Ce     0.1295   0.6435   0.0288
Ce117     Ce     0.5288   0.8705   0.6435
Ce118     Ce     0.6435   0.5288   0.8705
Ce119     Ce     0.8935   0.6205   0.2212
Ce120     Ce     0.8705   0.6435   0.5288
Ce121     Ce     0.9712   0.6295   0.8565
Ce122     Ce     0.6435   0.0288   0.1295
Ce123     Ce     0.8565   0.9712   0.6295
Ce124     Ce     0.6295   0.8565   0.9712
Ce125     Ce     0.6205   0.2212   0.8935
Ce126     Ce     0.2212   0.8935   0.6205
Ce127     Ce     0.1295   0.1435   0.9712
Ce128     Ce     0.5288   0.3705   0.3565
Ce129     Ce     0.4712   0.1295   0.3565
Ce130     Ce     0.3565   0.5288   0.3705
Ce131     Ce     0.3565   0.4712   0.1295
Ce132     Ce     0.3705   0.3565   0.5288
Ce133     Ce     0.1295   0.3565   0.4712
Ce134     Ce     0.6205   0.7788   0.6065
Ce135     Ce     0.7788   0.6065   0.6205
Ce136     Ce     0.6065   0.6205   0.7788
Ce137     Ce     0.8795   0.7212   0.8935
Ce138     Ce     0.7212   0.8935   0.8795
Ce139     Ce     0.6065   0.8795   0.2788
Ce140     Ce     0.8935   0.8795   0.7212
Ce141     Ce     0.0288   0.1295   0.6435
Ce142     Ce     0.1205   0.7788   0.8935
Ce143     Ce     0.7212   0.6065   0.3795
Ce144     Ce     0.6065   0.3795   0.7212
Ce145     Ce     0.7788   0.8935   0.1205
Ce146     Ce     0.8935   0.1205   0.7788
Ce147     Ce     0.3795   0.7212   0.6065
Ce148     Ce     0.3565   0.9712   0.8705
Ce149     Ce     0.8795   0.2788   0.6065
Ce150     Ce     0.2788   0.6065   0.8795
Ce151     Ce     0.1295   0.8565   0.5288
Ce152     Ce     0.8795   0.2212   0.1065
Ce153     Ce     0.6205   0.2788   0.3935
Ce154     Ce     0.1435   0.5288   0.6295
Ce155     Ce     0.1065   0.3795   0.7788
Ce156     Ce     0.3795   0.7788   0.1065
Ce157     Ce     0.7788   0.1065   0.3795
Ce158     Ce     0.3795   0.2212   0.3935
Ce159     Ce     0.2212   0.3935   0.3795
Ce160     Ce     0.3935   0.3795   0.2212
Ce161     Ce     0.2212   0.6065   0.1205
Ce162     Ce     0.5288   0.6295   0.1435
Ce163     Ce     0.6295   0.1435   0.5288
Ce164     Ce     0.1205   0.2788   0.1065
Ce165     Ce     0.2788   0.1065   0.1205
Ce166     Ce     0.1065   0.1205   0.2788
Ce167     Ce     0.4712   0.8705   0.1435
Ce168     Ce     0.1435   0.4712   0.8705
Ce169     Ce     0.8565   0.4712   0.3705
Ce170     Ce     0.4712   0.3705   0.8565
Ce171     Ce     0.2788   0.8935   0.3795
Ce172     Ce     0.3705   0.8565   0.4712
Ce173     Ce     0.2212   0.1065   0.8795
Ce174     Ce     0.8705   0.1435   0.4712
Ce175     Ce     0.1065   0.8795   0.2212
Ce176     Ce     0.6205   0.7212   0.1065
Ce177     Ce     0.1065   0.6205   0.7212
Ce178     Ce     0.1205   0.7212   0.3935
Ce179     Ce     0.7212   0.3935   0.1205
Ce180     Ce     0.7212   0.1065   0.6205
Ce181     Ce     0.3935   0.1205   0.7212
Ce182     Ce     0.0288   0.8705   0.8565
Ce183     Ce     0.8565   0.0288   0.8705
Ce184     Ce     0.8705   0.8565   0.0288
Ce185     Ce     0.2788   0.3935   0.6205
Ce186     Ce     0.3935   0.6205   0.2788
Ce187     Ce     0.7788   0.3935   0.8795
Ce188     Ce     0.8795   0.7788   0.3935
Ce189     Ce     0.3935   0.8795   0.7788
Ce190     Ce     0.4712   0.6295   0.6435
Ce191     Ce     0.6435   0.4712   0.6295
Ce192     Ce     0.6295   0.6435   0.4712
H193     H     0.1515   0.0276   0.7754
V194     V     0.2341   0.206   0.775
Er195     Er     0.2184   0.1444   0.8148
S196     S     0.1882   0.0759   0.8195
H197     H     0.4724   0.2246   0.6515
V198     V     0.294   0.225   0.7341
Er199     Er     0.3556   0.1852   0.7184
S200     S     0.4241   0.1805   0.6882
H201     H     0.2754   0.3485   0.9724
V202     V     0.275   0.2659   0.794
Er203     Er     0.3148   0.2816   0.8556
S204     S     0.3195   0.3118   0.9241
H205     H     0.4015   0.0254   0.2776
V206     V     0.4841   0.025   0.456
Er207     Er     0.4684   0.0648   0.3944
S208     S     0.4382   0.0695   0.3259
H209     H     0.7224   0.9015   0.4746
V210     V     0.544   0.9841   0.475
Er211     Er     0.6056   0.9684   0.4352
S212     S     0.6741   0.9382   0.4305
H213     H     0.5254   0.2224   0.5985
V214     V     0.525   0.044   0.5159
Er215     Er     0.5649   0.1056   0.5316
S216     S     0.5695   0.1741   0.5618
H217     H     0.9746   0.7776   0.0985
V218     V     0.975   0.956   0.0159
Er219     Er     0.9352   0.8944   0.0316
S220     S     0.9305   0.8259   0.0618
H221     H     0.0985   0.9746   0.7776
V222     V     0.0159   0.975   0.956
Er223     Er     0.0316   0.9352   0.8944
S224     S     0.0618   0.9305   0.8259
H225     H     0.7776   0.0985   0.9746
V226     V     0.956   0.0159   0.975
Er227     Er     0.8944   0.0316   0.9352
S228     S     0.8259   0.0618   0.9305
H229     H     0.0254   0.7224   0.0985
V230     V     0.025   0.544   0.0159
Er231     Er     0.0648   0.6056   0.0316
S232     S     0.0695   0.6741   0.0618
H233     H     0.2224   0.4015   0.9746
V234     V     0.044   0.4841   0.975
Er235     Er     0.1056   0.4684   0.9352
S236     S     0.1741   0.4382   0.9305
H237     H     0.9015   0.5254   0.7776
V238     V     0.9841   0.525   0.956
Er239     Er     0.9684   0.5649   0.8944
S240     S     0.9382   0.5695   0.8259
H241     H     0.7224   0.0985   0.0254
V242     V     0.544   0.0159   0.025
Er243     Er     0.6056   0.0316   0.0648
S244     S     0.6741   0.0618   0.0695
H245     H     0.5254   0.7776   0.9015
V246     V     0.525   0.956   0.9841
Er247     Er     0.5649   0.8944   0.9684
S248     S     0.5695   0.8259   0.9382
H249     H     0.4015   0.9746   0.2224
V250     V     0.4841   0.975   0.044
Er251     Er     0.4684   0.9352   0.1056
S252     S     0.4382   0.9305   0.1741
H253     H     0.0985   0.0254   0.7224
V254     V     0.0159   0.025   0.544
Er255     Er     0.0316   0.0648   0.6056
S256     S     0.0618   0.0695   0.6741
H257     H     0.9746   0.2224   0.4015
V258     V     0.975   0.044   0.4841
Er259     Er     0.9352   0.1056   0.4684
S260     S     0.9305   0.1741   0.4382
H261     H     0.7776   0.9015   0.5254
V262     V     0.956   0.9841   0.525
Er263     Er     0.8944   0.9684   0.5649
S264     S     0.8259   0.9382   0.5695
H265     H     0.2246   0.3485   0.0276
V266     V     0.225   0.2659   0.206
Er267     Er     0.1852   0.2816   0.1444
S268     S     0.1805   0.3118   0.0759
H269     H     0.3485   0.0276   0.2246
V270     V     0.2659   0.206   0.225
Er271     Er     0.2816   0.1444   0.1852
S272     S     0.3118   0.0759   0.1805
H273     H     0.0276   0.2246   0.3485
V274     V     0.206   0.225   0.2659
Er275     Er     0.1444   0.1852   0.2816
S276     S     0.0759   0.1805   0.3118
H277     H     0.0254   0.2776   0.4015
V278     V     0.025   0.456   0.4841
Er279     Er     0.0648   0.3944   0.4684
S280     S     0.0695   0.3259   0.4382
H281     H     0.9015   0.4746   0.7224
V282     V     0.9841   0.475   0.544
Er283     Er     0.9684   0.4352   0.6056
S284     S     0.9382   0.4305   0.6741
H285     H     0.2224   0.5985   0.5254
V286     V     0.044   0.5159   0.525
Er287     Er     0.1056   0.5316   0.5649
S288     S     0.1741   0.5618   0.5695
H289     H     0.0276   0.7754   0.1515
V290     V     0.206   0.775   0.2341
Er291     Er     0.1444   0.8148   0.2184
S292     S     0.0759   0.8195   0.1882
H293     H     0.3485   0.9724   0.2754
V294     V     0.2659   0.794   0.275
Er295     Er     0.2816   0.8556   0.3148
S296     S     0.3118   0.9241   0.3195
H297     H     0.2246   0.6515   0.4724
V298     V     0.225   0.7341   0.294
Er299     Er     0.1851   0.7184   0.3556
S300     S     0.1805   0.6882   0.4241
H301     H     0.4746   0.2776   0.5985
V302     V     0.475   0.456   0.5159
Er303     Er     0.4352   0.3944   0.5316
S304     S     0.4305   0.3259   0.5618
H305     H     0.2776   0.5985   0.4746
V306     V     0.456   0.5159   0.475
Er307     Er     0.3944   0.5316   0.4352
S308     S     0.3259   0.5618   0.4305
H309     H     0.5985   0.4746   0.2776
V310     V     0.5159   0.475   0.456
Er311     Er     0.5316   0.4352   0.3944
S312     S     0.5618   0.4305   0.3259
H313     H     0.7754   0.1515   0.0276
V314     V     0.775   0.2341   0.206
Er315     Er     0.8148   0.2184   0.1444
S316     S     0.8195   0.1882   0.0759
H317     H     0.6515   0.4724   0.2246
V318     V     0.7341   0.294   0.225
Er319     Er     0.7184   0.3556   0.1851
S320     S     0.6882   0.4241   0.1805
H321     H     0.9724   0.2754   0.3485
V322     V     0.794   0.275   0.2659
Er323     Er     0.8556   0.3148   0.2816
S324     S     0.9241   0.3195   0.3118
H325     H     0.7754   0.8485   0.4724
V326     V     0.775   0.7659   0.294
Er327     Er     0.8148   0.7816   0.3556
S328     S     0.8195   0.8118   0.4241
H329     H     0.9724   0.7246   0.1515
V330     V     0.794   0.725   0.2341
Er331     Er     0.8556   0.6852   0.2184
S332     S     0.9241   0.6805   0.1882
H333     H     0.6515   0.5276   0.2754
V334     V     0.7341   0.706   0.275
Er335     Er     0.7184   0.6444   0.3148
S336     S     0.6882   0.5759   0.3195
H337     H     0.2776   0.4015   0.0254
V338     V     0.456   0.4841   0.025
Er339     Er     0.3944   0.4684   0.0648
S340     S     0.3259   0.4382   0.0695
H341     H     0.5985   0.5254   0.2224
V342     V     0.5159   0.525   0.044
Er343     Er     0.5316   0.5649   0.1056
S344     S     0.5618   0.5695   0.1741
H345     H     0.4746   0.7224   0.9015
V346     V     0.475   0.544   0.9841
Er347     Er     0.4352   0.6056   0.9684
S348     S     0.4305   0.6741   0.9382
H349     H     0.4724   0.7754   0.8485
V350     V     0.294   0.775   0.7659
Er351     Er     0.3556   0.8148   0.7816
S352     S     0.4241   0.8195   0.8118
H353     H     0.1515   0.9724   0.7246
V354     V     0.2341   0.794   0.725
Er355     Er     0.2184   0.8556   0.6852
S356     S     0.1882   0.9241   0.6805
H357     H     0.2754   0.6515   0.5276
V358     V     0.275   0.7341   0.706
Er359     Er     0.3148   0.7184   0.6444
S360     S     0.3195   0.6882   0.5759
H361     H     0.5276   0.7246   0.8485
V362     V     0.706   0.725   0.7659
Er363     Er     0.6444   0.6852   0.7816
S364     S     0.5759   0.6805   0.8118
H365     H     0.7246   0.8485   0.5276
V366     V     0.725   0.7659   0.706
Er367     Er     0.6852   0.7816   0.6444
S368     S     0.6805   0.8118   0.5759
H369     H     0.8485   0.5276   0.7246
V370     V     0.7659   0.706   0.725
Er371     Er     0.7816   0.6444   0.6852
S372     S     0.8118   0.5759   0.6805
H373     H     0.7246   0.1515   0.9724
V374     V     0.725   0.2341   0.794
Er375     Er     0.6852   0.2184   0.8556
S376     S     0.6805   0.1882   0.9241
H377     H     0.8485   0.4724   0.7754
V378     V     0.7659   0.294   0.775
Er379     Er     0.7816   0.3556   0.8148
S380     S     0.8118   0.4241   0.8195
H381     H     0.5276   0.2754   0.6515
V382     V     0.706   0.275   0.7341
Er383     Er     0.6444   0.3148   0.7184
S384     S     0.5759   0.3195   0.6882
H385     H     0.5985   0.9746   0.7224
V386     V     0.5159   0.975   0.544
Er387     Er     0.5316   0.9352   0.6056
S388     S     0.5618   0.9305   0.6741
H389     H     0.4746   0.7776   0.4015
V390     V     0.475   0.956   0.4841
Er391     Er     0.4352   0.8944   0.4684
S392     S     0.4305   0.8259   0.4382
H393     H     0.2776   0.0985   0.5254
V394     V     0.456   0.0159   0.525
Er395     Er     0.3944   0.0316   0.5648
S396     S     0.3259   0.0618   0.5695
H397     H     0.4724   0.7246   0.3485
V398     V     0.294   0.725   0.2659
Er399     Er     0.3556   0.6852   0.2816
S400     S     0.4241   0.6805   0.3118
H401     H     0.2754   0.8485   0.0276
V402     V     0.275   0.7659   0.206
Er403     Er     0.3148   0.7816   0.1444
S404     S     0.3195   0.8118   0.0759
H405     H     0.1515   0.5276   0.2246
V406     V     0.2341   0.706   0.225
Er407     Er     0.2184   0.6444   0.1852
S408     S     0.1882   0.5759   0.1805
H409     H     0.5985   0.0254   0.7776
V410     V     0.5159   0.025   0.956
Er411     Er     0.5316   0.0649   0.8944
S412     S     0.5618   0.0695   0.8259
H413     H     0.2776   0.9015   0.9746
V414     V     0.456   0.9841   0.975
Er415     Er     0.3944   0.9684   0.9352
S416     S     0.3259   0.9382   0.9305
H417     H     0.4746   0.2224   0.0985
V418     V     0.475   0.044   0.0159
Er419     Er     0.4352   0.1056   0.0316
S420     S     0.4305   0.1741   0.0618
H421     H     0.7246   0.3485   0.4724
V422     V     0.725   0.2659   0.294
Er423     Er     0.6851   0.2816   0.3556
S424     S     0.6805   0.3118   0.4241
H425     H     0.8485   0.0276   0.2754
V426     V     0.7659   0.206   0.275
Er427     Er     0.7816   0.1444   0.3148
S428     S     0.8118   0.0759   0.3195
H429     H     0.5276   0.2246   0.1515
V430     V     0.706   0.225   0.2341
Er431     Er     0.6444   0.1852   0.2184
S432     S     0.5759   0.1805   0.1882
H433     H     0.7776   0.5985   0.0254
V434     V     0.956   0.5159   0.025
Er435     Er     0.8944   0.5316   0.0649
S436     S     0.8259   0.5618   0.0695
H437     H     0.9746   0.2776   0.9015
V438     V     0.975   0.456   0.9841
Er439     Er     0.9352   0.3944   0.9684
S440     S     0.9305   0.3259   0.9382
H441     H     0.0985   0.4746   0.2224
V442     V     0.0159   0.475   0.044
Er443     Er     0.0316   0.4352   0.1056
S444     S     0.0618   0.4305   0.1741
H445     H     0.3485   0.4724   0.7246
V446     V     0.2659   0.294   0.725
Er447     Er     0.2816   0.3556   0.6852
S448     S     0.3118   0.4241   0.6805
H449     H     0.0276   0.2754   0.8485
V450     V     0.206   0.275   0.7659
Er451     Er     0.1444   0.3148   0.7816
S452     S     0.0759   0.3195   0.8118
H453     H     0.2246   0.1515   0.5276
V454     V     0.225   0.2341   0.706
Er455     Er     0.1852   0.2184   0.6444
S456     S     0.1805   0.1882   0.5759
H457     H     0.0276   0.7246   0.6515
V458     V     0.206   0.725   0.7341
Er459     Er     0.1444   0.6852   0.7184
S460     S     0.0759   0.6805   0.6882
H461     H     0.3485   0.5276   0.7754
V462     V     0.2659   0.706   0.775
Er463     Er     0.2816   0.6444   0.8148
S464     S     0.3118   0.5759   0.8195
H465     H     0.2246   0.8485   0.9724
V466     V     0.225   0.7659   0.794
Er467     Er     0.1852   0.7816   0.8556
S468     S     0.1805   0.8118   0.9241
H469     H     0.6515   0.0276   0.7246
V470     V     0.7341   0.206   0.725
Er471     Er     0.7184   0.1444   0.6851
S472     S     0.6882   0.0759   0.6805
H473     H     0.7754   0.3485   0.5276
V474     V     0.775   0.2659   0.706
Er475     Er     0.8148   0.2816   0.6444
S476     S     0.8195   0.3118   0.5759
H477     H     0.9724   0.2246   0.8485
V478     V     0.794   0.225   0.7659
Er479     Er     0.8556   0.1852   0.7816
S480     S     0.9241   0.1805   0.8118
H481     H     0.0254   0.2224   0.9015
V482     V     0.025   0.044   0.9841
Er483     Er     0.0648   0.1056   0.9684
S484     S     0.0695   0.1741   0.9382
H485     H     0.2224   0.9015   0.0254
V486     V     0.044   0.9841   0.025
Er487     Er     0.1056   0.9684   0.0648
S488     S     0.1741   0.9382   0.0695
H489     H     0.9015   0.0254   0.2224
V490     V     0.9841   0.025   0.044
Er491     Er     0.9684   0.0648   0.1056
S492     S     0.9382   0.0695   0.1741
H493     H     0.0254   0.7776   0.5985
V494     V     0.025   0.956   0.5159
Er495     Er     0.0648   0.8944   0.5316
S496     S     0.0695   0.8259   0.5618
H497     H     0.9015   0.9746   0.2776
V498     V     0.9841   0.975   0.456
Er499     Er     0.9684   0.9352   0.3944
S500     S     0.9382   0.9305   0.3259
H501     H     0.2224   0.0985   0.4746
V502     V     0.044   0.0159   0.475
Er503     Er     0.1056   0.0316   0.4352
S504     S     0.1741   0.0618   0.4305
H505     H     0.7246   0.6515   0.0276
V506     V     0.725   0.7341   0.206
Er507     Er     0.6852   0.7184   0.1444
S508     S     0.6805   0.6882   0.0759
H509     H     0.5276   0.7754   0.3485
V510     V     0.706   0.775   0.2659
Er511     Er     0.6444   0.8148   0.2816
S512     S     0.5759   0.8195   0.3118
H513     H     0.8485   0.9724   0.2246
V514     V     0.7659   0.794   0.225
Er515     Er     0.7816   0.8556   0.1852
S516     S     0.8118   0.9241   0.1805
H517     H     0.9724   0.7754   0.6515
V518     V     0.794   0.775   0.7341
Er519     Er     0.8556   0.8148   0.7184
S520     S     0.9241   0.8195   0.6882
H521     H     0.6515   0.9724   0.7754
V522     V     0.7341   0.794   0.775
Er523     Er     0.7184   0.8556   0.8148
S524     S     0.6882   0.9241   0.8195
H525     H     0.7754   0.6515   0.9724
V526     V     0.775   0.7341   0.794
Er527     Er     0.8148   0.7184   0.8556
S528     S     0.8195   0.6882   0.9241
H529     H     0.4015   0.4746   0.7776
V530     V     0.4841   0.475   0.956
Er531     Er     0.4684   0.4352   0.8944
S532     S     0.4382   0.4305   0.8259
H533     H     0.5254   0.2776   0.0985
V534     V     0.525   0.456   0.0159
Er535     Er     0.5648   0.3944   0.0316
S536     S     0.5695   0.3259   0.0618
H537     H     0.7224   0.5985   0.9746
V538     V     0.544   0.5159   0.975
Er539     Er     0.6056   0.5316   0.9352
S540     S     0.6741   0.5618   0.9305
H541     H     0.9746   0.7224   0.5985
V542     V     0.975   0.544   0.5159
Er543     Er     0.9352   0.6056   0.5316
S544     S     0.9305   0.6741   0.5618
H545     H     0.0985   0.5254   0.2776
V546     V     0.0159   0.525   0.456
Er547     Er     0.0316   0.5648   0.3944
S548     S     0.0618   0.5695   0.3259
H549     H     0.7776   0.4015   0.4746
V550     V     0.956   0.4841   0.475
Er551     Er     0.8944   0.4684   0.4351
S552     S     0.8259   0.4382   0.4305
H553     H     0.5254   0.7224   0.4015
V554     V     0.525   0.544   0.4841
Er555     Er     0.5648   0.6056   0.4684
S556     S     0.5695   0.6741   0.4382
H557     H     0.7224   0.4015   0.5254
V558     V     0.544   0.4841   0.525
Er559     Er     0.6056   0.4684   0.5648
S560     S     0.6741   0.4382   0.5695
H561     H     0.4015   0.5254   0.7224
V562     V     0.4841   0.525   0.544
Er563     Er     0.4684   0.5648   0.6056
S564     S     0.4382   0.5695   0.6741
H565     H     0.2754   0.1515   0.4724
V566     V     0.275   0.2341   0.294
Er567     Er     0.3148   0.2184   0.3556
S568     S     0.3195   0.1882   0.4241
H569     H     0.1515   0.4724   0.2754
V570     V     0.2341   0.294   0.275
Er571     Er     0.2184   0.3556   0.3148
S572     S     0.1882   0.4241   0.3195
H573     H     0.4724   0.2754   0.1515
V574     V     0.294   0.275   0.2341
Er575     Er     0.3556   0.3148   0.2184
S576     S     0.4241   0.3195   0.1882
loop_
_geom_bond_atom_site_label_1
_geom_bond_atom_site_label_2
_geom_bond_distance
_geom_bond_site_symmetry_2
_ccdc_geom_bond_type
Ti1     Ti2    10.0   1_554     S
Ti1     Ti4    10.0   .     S
Ti1     Ce124    9.999   1_554     S
Ti2     Ti1    10.0   1_556     S
Ti2     Ti3    10.0   1_556     S
Ti2     Ce138    9.999   .     S
Ti3     Ti2    10.0   1_554     S
Ti3     Ti4    10.0   .     S
Ti3     Ce184    9.999   .     S
Ti4     Ce145    9.999   .     S
Ti5     Ti7    10.0   .     S
Ti5     Ti8    10.0   .     S
Ti5     Ce178    9.999   .     S
Ti6     Ti7    10.0   1_655     S
Ti6     Ti8    10.0   1_655     S
Ti6     Ce188    9.999   .     S
Ti7     Ti6    10.0   1_455     S
Ti7     Ce107    9.999   1_455     S
Ti8     Ti6    10.0   1_455     S
Ti8     Ce109    9.999   .     S
Ti9     Ti11    10.0   .     S
Ti9     Ti12    10.0   .     S
Ti9     Ce177    9.999   .     S
Ti10     Ti11    10.0   .     S
Ti10     Ti12    10.0   .     S
Ti10     Ce155    9.999   .     S
Ti11     Ce168    9.999   .     S
Ti12     Ce154    9.999   .     S
Ti13     Ti15    10.0   .     S
Ti13     Ti16    10.0   .     S
Ti13     Ce180    9.999   .     S
Ti14     Ti15    10.0   .     S
Ti14     Ti16    10.0   .     S
Ti14     Ce157    9.999   .     S
Ti15     Ce174    9.999   .     S
Ti16     Ce163    9.999   .     S
Ti17     Ti20    10.0   .     S
Ti17     Ti19    10.0   .     S
Ti17     Ce136    9.999   .     S
Ti18     Ti20    10.0   .     S
Ti18     Ti19    10.0   .     S
Ti18     Ce144    9.999   .     S
Ti19     Ce191    9.999   .     S
Ti20     Ce118    9.999   .     S
Ti21     Ti24    10.0   1_554     S
Ti21     Ti23    10.0   .     S
Ti21     Ce99    9.999   .     S
Ti22     Ti24    10.0   1_554     S
Ti22     Ti23    10.0   .     S
Ti22     Ce127    9.999   1_554     S
Ti23     Ce165    9.999   .     S
Ti24     Ti21    10.0   1_556     S
Ti24     Ti22    10.0   1_556     S
Ti24     Ce173    9.999   .     S
Ti25     Ti27    10.0   .     S
Ti25     Ti28    10.0   .     S
Ti25     Ce134    9.999   .     S
Ti26     Ti27    10.0   .     S
Ti26     Ti28    10.0   .     S
Ti26     Ce147    9.999   .     S
Ti27     Ce117    9.999   .     S
Ti28     Ce190    9.999   .     S
Ti29     Ti32    10.0   1_455     S
Ti29     Ti31    10.0   .     S
Ti29     Ce100    9.999   1_455     S
Ti30     Ti32    10.0   1_455     S
Ti30     Ti31    10.0   .     S
Ti30     Ce141    9.999   .     S
Ti31     Ce112    9.999   .     S
Ti32     Ti29    10.0   1_655     S
Ti32     Ti30    10.0   1_655     S
Ti32     Ce149    9.999   .     S
Ti33     Ti36    10.0   1_455     S
Ti33     Ti35    10.0   .     S
Ti33     Ce104    9.999   .     S
Ti34     Ti36    10.0   1_455     S
Ti34     Ti35    10.0   .     S
Ti34     Ce114    9.999   1_455     S
Ti35     Ce164    9.999   .     S
Ti36     Ti33    10.0   1_655     S
Ti36     Ti34    10.0   1_655     S
Ti36     Ce152    9.999   .     S
Ti37     Ti40    10.0   1_545     S
Ti37     Ti38    10.0   .     S
Ti37     Ce101    9.999   1_545     S
Ti38     Ti39    10.0   .     S
Ti38     Ce113    9.999   .     S
Ti39     Ti40    10.0   1_545     S
Ti39     Ce122    9.999   .     S
Ti40     Ti37    10.0   1_565     S
Ti40     Ti39    10.0   1_565     S
Ti40     Ce139    9.999   .     S
Ti41     Ti44    10.0   1_545     S
Ti41     Ti43    10.0   .     S
Ti41     Ce98    9.999   .     S
Ti42     Ti44    10.0   1_545     S
Ti42     Ti43    10.0   .     S
Ti42     Ce115    9.999   1_545     S
Ti43     Ce166    9.999   .     S
Ti44     Ti41    10.0   1_565     S
Ti44     Ti42    10.0   1_565     S
Ti44     Ce175    9.999   .     S
Ti45     Ti47    10.0   .     S
Ti45     Ti48    10.0   .     S
Ti45     Ce146    9.999   .     S
Ti46     Ti47    10.0   1_565     S
Ti46     Ti48    10.0   1_565     S
Ti46     Ce140    9.999   .     S
Ti47     Ti46    10.0   1_545     S
Ti47     Ce183    9.999   .     S
Ti48     Ti46    10.0   1_545     S
Ti48     Ce123    9.999   1_545     S
Ti49     Ti51    10.0   .     S
Ti49     Ti52    10.0   .     S
Ti49     Ce142    9.999   .     S
Ti50     Ti51    10.0   1_655     S
Ti50     Ti52    10.0   1_655     S
Ti50     Ce137    9.999   .     S
Ti51     Ti50    10.0   1_455     S
Ti51     Ce182    9.999   .     S
Ti52     Ti50    10.0   1_455     S
Ti52     Ce121    9.999   1_455     S
Ti53     Ti54    10.0   1_554     S
Ti53     Ti56    10.0   .     S
Ti53     Ce116    9.999   .     S
Ti54     Ti53    10.0   1_556     S
Ti54     Ti55    10.0   1_556     S
Ti54     Ce150    9.999   .     S
Ti55     Ti54    10.0   1_554     S
Ti55     Ti56    10.0   .     S
Ti55     Ce105    9.999   1_554     S
Ti56     Ce161    9.999   .     S
Ti57     Ti60    10.0   .     S
Ti57     Ti59    10.0   .     S
Ti57     Ce186    9.999   .     S
Ti58     Ti60    10.0   .     S
Ti58     Ti59    10.0   .     S
Ti58     Ce160    9.999   .     S
Ti59     Ce130    9.999   .     S
Ti60     Ce131    9.999   .     S
Ti61     Ti63    10.0   .     S
Ti61     Ti64    10.0   .     S
Ti61     Ce176    9.999   .     S
Ti62     Ti63    10.0   .     S
Ti62     Ti64    10.0   .     S
Ti62     Ce156    9.999   .     S
Ti63     Ce167    9.999   .     S
Ti64     Ce162    9.999   .     S
Ti65     Ti66    10.0   1_545     S
Ti65     Ti68    10.0   .     S
Ti65     Ce106    9.999   .     S
Ti66     Ti65    10.0   1_565     S
Ti66     Ti67    10.0   1_565     S
Ti66     Ce189    9.999   .     S
Ti67     Ti66    10.0   1_545     S
Ti67     Ti68    10.0   .     S
Ti67     Ce148    9.999   1_545     S
Ti68     Ce181    9.999   .     S
Ti69     Ti72    10.0   .     S
Ti69     Ti70    10.0   1_554     S
Ti69     Ce108    9.999   1_554     S
Ti70     Ti69    10.0   1_556     S
Ti70     Ti71    10.0   1_556     S
Ti70     Ce187    9.999   .     S
Ti71     Ti70    10.0   1_554     S
Ti71     Ti72    10.0   .     S
Ti71     Ce97    9.999   .     S
Ti72     Ce179    9.999   .     S
Ti73     Ti75    10.0   .     S
Ti73     Ti74    10.0   .     S
Ti73     Ce192    9.999   .     S
Ti74     Ti76    10.0   .     S
Ti74     Ce135    9.999   .     S
Ti75     Ti76    10.0   .     S
Ti75     Ce143    9.999   .     S
Ti76     Ce120    9.999   .     S
Ti77     Ti80    10.0   .     S
Ti77     Ti79    10.0   .     S
Ti77     Ce185    9.999   .     S
Ti78     Ti80    10.0   .     S
Ti78     Ti79    10.0   .     S
Ti78     Ce159    9.999   .     S
Ti79     Ce132    9.999   .     S
Ti80     Ce133    9.999   .     S
Ti81     Ti84    10.0   .     S
Ti81     Ti83    10.0   .     S
Ti81     Ce153    9.999   .     S
Ti82     Ti84    10.0   .     S
Ti82     Ti83    10.0   .     S
Ti82     Ce158    9.999   .     S
Ti83     Ce128    9.999   .     S
Ti84     Ce129    9.999   .     S
Ti85     Ti87    10.0   .     S
Ti85     Ti88    10.0   .     S
Ti85     Ce125    9.999   .     S
Ti86     Ti88    10.0   .     S
Ti86     Ti87    10.0   .     S
Ti86     Ce110    9.999   .     S
Ti87     Ce170    9.999   .     S
Ti88     Ce102    9.999   .     S
Ti89     Ti92    10.0   .     S
Ti89     Ti91    10.0   .     S
Ti89     Ce126    9.999   .     S
Ti90     Ti92    10.0   .     S
Ti90     Ti91    10.0   .     S
Ti90     Ce171    9.999   .     S
Ti91     Ce172    9.999   .     S
Ti92     Ce151    9.999   .     S
Ti93     Ti96    10.0   .     S
Ti93     Ti95    10.0   .     S
Ti93     Ce119    9.999   .     S
Ti94     Ti96    10.0   .     S
Ti94     Ti95    10.0   .     S
Ti94     Ce111    9.999   .     S
Ti95     Ce169    9.999   .     S
Ti96     Ce103    9.999   .     S
Ce97     Er535    10.001   .     S
Ce97     S536    10.001   .     S
Ce98     Er503    10.001   .     S
Ce98     S504    10.001   .     S
Ce99     Er419    10.001   .     S
Ce99     S420    10.001   .     S
Ce100     Ti29    9.999   1_655     S
Ce100     Er283    10.001   .     S
Ce100     S284    10.001   .     S
Ce101     Ti37    9.999   1_565     S
Ce101     Er211    10.001   .     S
Ce101     S212    10.001   .     S
Ce102     Er411    10.001   .     S
Ce102     S412    10.001   .     S
Ce103     Er435    10.001   .     S
Ce103     S436    10.001   .     S
Ce104     Er443    10.001   .     S
Ce104     S444    10.001   .     S
Ce105     Ti55    9.999   1_556     S
Ce105     Er347    10.001   .     S
Ce105     S348    10.001   .     S
Ce106     Er395    10.001   .     S
Ce106     S396    10.001   .     S
Ce107     Ti7    9.999   1_655     S
Ce107     Er499    10.001   .     S
Ce107     S500    10.001   .     S
Ce108     Ti69    9.999   1_556     S
Ce108     Er439    10.001   .     S
Ce108     S440    10.001   .     S
Ce109     Er547    10.001   .     S
Ce109     S548    10.001   .     S
Ce110     Er203    10.001   .     S
Ce110     S204    10.001   .     S
Ce111     Er323    10.001   .     S
Ce111     S324    10.001   .     S
Ce112     Er455    10.001   .     S
Ce112     S456    10.001   .     S
Ce113     Er431    10.001   .     S
Ce113     S432    10.001   .     S
Ce114     Ti34    9.999   1_655     S
Ce114     Er491    10.001   .     S
Ce114     S492    10.001   .     S
Ce115     Ti42    9.999   1_565     S
Ce115     Er487    10.001   .     S
Ce115     S488    10.001   .     S
Ce116     Er231    10.001   .     S
Ce116     S232    10.001   .     S
Ce117     Er387    10.001   .     S
Ce117     S388    10.001   .     S
Ce118     Er539    10.001   .     S
Ce118     S540    10.001   .     S
Ce119     Er331    10.001   .     S
Ce119     S332    10.001   .     S
Ce120     Er543    10.001   .     S
Ce120     S544    10.001   .     S
Ce121     Ti52    9.999   1_655     S
Ce121     Er239    10.001   .     S
Ce121     S240    10.001   .     S
Ce122     Er243    10.001   .     S
Ce122     S244    10.001   .     S
Ce123     Ti48    9.999   1_565     S
Ce123     Er263    10.001   .     S
Ce123     S264    10.001   .     S
Ce124     Ti1    9.999   1_556     S
Ce124     Er247    10.001   .     S
Ce124     S248    10.001   .     S
Ce125     Er375    10.001   .     S
Ce125     S376    10.001   .     S
Ce126     Er355    10.001   .     S
Ce126     S356    10.001   .     S
Ce127     Ti22    9.999   1_556     S
Ce127     Er483    10.001   .     S
Ce127     S484    10.001   .     S
Ce128     Er311    10.001   .     S
Ce128     S312    10.001   .     S
Ce129     Er207    10.001   .     S
Ce129     S208    10.001   .     S
Ce130     Er307    10.001   .     S
Ce130     S308    10.001   .     S
Ce131     Er339    10.001   .     S
Ce131     S340    10.001   .     S
Ce132     Er303    10.001   .     S
Ce132     S304    10.001   .     S
Ce133     Er279    10.001   .     S
Ce133     S280    10.001   .     S
Ce134     Er367    10.001   .     S
Ce134     S368    10.001   .     S
Ce135     Er371    10.001   .     S
Ce135     S372    10.001   .     S
Ce136     Er363    10.001   .     S
Ce136     S364    10.001   .     S
Ce137     Er527    10.001   .     S
Ce137     S528    10.001   .     S
Ce138     Er523    10.001   .     S
Ce138     S524    10.001   .     S
Ce139     Er511    10.001   .     S
Ce139     S512    10.001   .     S
Ce140     Er519    10.001   .     S
Ce140     S520    10.001   .     S
Ce141     Er255    10.001   .     S
Ce141     S256    10.001   .     S
Ce142     Er467    10.001   .     S
Ce142     S468    10.001   .     S
Ce143     Er335    10.001   .     S
Ce143     S336    10.001   .     S
Ce144     Er383    10.001   .     S
Ce144     S384    10.001   .     S
Ce145     Er515    10.001   .     S
Ce145     S516    10.001   .     S
Ce146     Er479    10.001   .     S
Ce146     S480    10.001   .     S
Ce147     Er359    10.001   .     S
Ce147     S360    10.001   .     S
Ce148     Ti67    9.999   1_565     S
Ce148     Er415    10.001   .     S
Ce148     S416    10.001   .     S
Ce149     Er475    10.001   .     S
Ce149     S476    10.001   .     S
Ce150     Er463    10.001   .     S
Ce150     S464    10.001   .     S
Ce151     Er495    10.001   .     S
Ce151     S496    10.001   .     S
Ce152     Er315    10.001   .     S
Ce152     S316    10.001   .     S
Ce153     Er423    10.001   .     S
Ce153     S424    10.001   .     S
Ce154     Er287    10.001   .     S
Ce154     S288    10.001   .     S
Ce155     Er451    10.001   .     S
Ce155     S452    10.001   .     S
Ce156     Er403    10.001   .     S
Ce156     S404    10.001   .     S
Ce157     Er427    10.001   .     S
Ce157     S428    10.001   .     S
Ce158     Er567    10.001   .     S
Ce158     S568    10.001   .     S
Ce159     Er571    10.001   .     S
Ce159     S572    10.001   .     S
Ce160     Er575    10.001   .     S
Ce160     S576    10.001   .     S
Ce161     Er407    10.001   .     S
Ce161     S408    10.001   .     S
Ce162     Er343    10.001   .     S
Ce162     S344    10.001   .     S
Ce163     Er215    10.001   .     S
Ce163     S216    10.001   .     S
Ce164     Er267    10.001   .     S
Ce164     S268    10.001   .     S
Ce165     Er271    10.001   .     S
Ce165     S272    10.001   .     S
Ce166     Er275    10.001   .     S
Ce166     S276    10.001   .     S
Ce167     Er251    10.001   .     S
Ce167     S252    10.001   .     S
Ce168     Er235    10.001   .     S
Ce168     S236    10.001   .     S
Ce169     Er551    10.001   .     S
Ce169     S552    10.001   .     S
Ce170     Er531    10.001   .     S
Ce170     S532    10.001   .     S
Ce171     Er295    10.001   .     S
Ce171     S296    10.001   .     S
Ce172     Er391    10.001   .     S
Ce172     S392    10.001   .     S
Ce173     Er195    10.001   .     S
Ce173     S196    10.001   .     S
Ce174     Er259    10.001   .     S
Ce174     S260    10.001   .     S
Ce175     Er291    10.001   .     S
Ce175     S292    10.001   .     S
Ce176     Er507    10.001   .     S
Ce176     S508    10.001   .     S
Ce177     Er459    10.001   .     S
Ce177     S460    10.001   .     S
Ce178     Er299    10.001   .     S
Ce178     S300    10.001   .     S
Ce179     Er319    10.001   .     S
Ce179     S320    10.001   .     S
Ce180     Er471    10.001   .     S
Ce180     S472    10.001   .     S
Ce181     Er199    10.001   .     S
Ce181     S200    10.001   .     S
Ce182     Er223    10.001   .     S
Ce182     S224    10.001   .     S
Ce183     Er227    10.001   .     S
Ce183     S228    10.001   .     S
Ce184     Er219    10.001   .     S
Ce184     S220    10.001   .     S
Ce185     Er447    10.001   .     S
Ce185     S448    10.001   .     S
Ce186     Er399    10.001   .     S
Ce186     S400    10.001   .     S
Ce187     Er379    10.001   .     S
Ce187     S380    10.001   .     S
Ce188     Er327    10.001   .     S
Ce188     S328    10.001   .     S
Ce189     Er351    10.001   .     S
Ce189     S352    10.001   .     S
Ce190     Er563    10.001   .     S
Ce190     S564    10.001   .     S
Ce191     Er559    10.001   .     S
Ce191     S560    10.001   .     S
Ce192     Er555    10.001   .     S
Ce192     S556    10.001   .     S
H193     S196    9.999   .     S
H193     H253    10.001   .     S
H193     H353    10.001   1_545     S
H193     H221    10.001   1_545     S
V194     Er195    9.999   .     S
V194     V450    10.001   .     S
V194     V202    10.001   .     S
V194     V198    10.001   .     S
V194     V454    10.001   .     S
Er195     S196    10.0   .     S
H197     S200    9.999   .     S
H197     H213    10.001   .     S
H197     H301    10.001   .     S
H197     H381    10.001   .     S
V198     Er199    9.999   .     S
V198     V454    10.001   .     S
V198     V446    10.001   .     S
V198     V202    10.001   .     S
Er199     S200    10.0   .     S
H201     S204    9.999   .     S
H201     H233    10.001   .     S
H201     H337    10.001   1_556     S
H201     H265    10.001   1_556     S
V202     Er203    9.999   .     S
V202     V446    10.001   .     S
V202     V450    10.001   .     S
Er203     S204    10.0   .     S
H205     S208    9.999   .     S
H205     H293    10.001   1_545     S
H205     H249    10.001   1_545     S
H205     H269    10.001   .     S
V206     Er207    9.999   .     S
V206     V394    10.001   .     S
V206     V390    10.001   1_545     S
V206     V214    10.001   .     S
V206     V210    10.001   1_545     S
Er207     S208    10.0   .     S
H209     S212    9.999   .     S
H209     H325    10.001   .     S
H209     H365    10.001   .     S
H209     H261    10.001   .     S
V210     Er211    9.999   .     S
V210     V390    10.001   .     S
V210     V386    10.001   .     S
V210     V206    10.001   1_565     S
V210     V214    10.001   1_565     S
Er211     S212    10.0   .     S
H213     S216    9.999   .     S
H213     H301    10.001   .     S
H213     H381    10.001   .     S
V214     Er215    9.999   .     S
V214     V386    10.001   1_545     S
V214     V210    10.001   1_545     S
V214     V394    10.001   .     S
Er215     S216    10.0   .     S
H217     S220    9.999   .     S
H217     H289    10.001   1_655     S
H217     H229    10.001   1_655     S
H217     H329    10.001   .     S
V218     Er219    9.999   .     S
V218     V490    10.001   1_565     S
V218     V486    10.001   1_655     S
V218     V222    10.001   1_654     S
V218     V226    10.001   1_564     S
Er219     S220    10.0   .     S
H221     S224    9.999   .     S
H221     H193    10.001   1_565     S
H221     H253    10.001   1_565     S
H221     H353    10.001   .     S
V222     Er223    9.999   .     S
V222     V486    10.001   1_556     S
V222     V482    10.001   1_565     S
V222     V218    10.001   1_456     S
V222     V226    10.001   1_465     S
Er223     S224    10.0   .     S
H225     S228    9.999   .     S
H225     H313    10.001   1_556     S
H225     H241    10.001   1_556     S
H225     H373    10.001   .     S
V226     Er227    9.999   .     S
V226     V482    10.001   1_655     S
V226     V218    10.001   1_546     S
V226     V222    10.001   1_645     S
V226     V490    10.001   1_556     S
Er227     S228    10.0   .     S
H229     S232    9.999   .     S
H229     H217    10.001   1_455     S
H229     H289    10.001   .     S
H229     H329    10.001   1_455     S
V230     Er231    9.999   .     S
V230     V442    10.001   .     S
V230     V434    10.001   1_455     S
V230     V234    10.001   1_554     S
V230     V238    10.001   1_454     S
Er231     S232    10.0   .     S
H233     S236    9.999   .     S
H233     H265    10.001   1_556     S
H233     H337    10.001   1_556     S
V234     Er235    9.999   .     S
V234     V438    10.001   1_455     S
V234     V238    10.001   1_455     S
V234     V230    10.001   1_556     S
V234     V442    10.001   1_556     S
Er235     S236    10.0   .     S
H237     S240    9.999   .     S
H237     H377    10.001   .     S
H237     H369    10.001   .     S
H237     H281    10.001   .     S
V238     Er239    9.999   .     S
V238     V434    10.001   1_556     S
V238     V438    10.001   .     S
V238     V234    10.001   1_655     S
V238     V230    10.001   1_656     S
Er239     S240    10.0   .     S
H241     S244    9.999   .     S
H241     H225    10.001   1_554     S
H241     H313    10.001   .     S
H241     H373    10.001   1_554     S
V242     Er243    9.999   .     S
V242     V418    10.001   .     S
V242     V410    10.001   1_554     S
V242     V250    10.001   1_545     S
V242     V246    10.001   1_544     S
Er243     S244    10.0   .     S
H245     S248    9.999   .     S
H245     H349    10.001   .     S
H245     H361    10.001   .     S
H245     H345    10.001   .     S
V246     Er247    9.999   .     S
V246     V410    10.001   1_565     S
V246     V414    10.001   .     S
V246     V250    10.001   1_556     S
V246     V242    10.001   1_566     S
Er247     S248    10.0   .     S
H249     S252    9.999   .     S
H249     H269    10.001   1_565     S
H249     H205    10.001   1_565     S
H249     H293    10.001   .     S
V250     Er251    9.999   .     S
V250     V414    10.001   1_554     S
V250     V246    10.001   1_554     S
V250     V242    10.001   1_565     S
V250     V418    10.001   1_565     S
Er251     S252    10.0   .     S
H253     S256    9.999   .     S
H253     H221    10.001   1_545     S
H253     H353    10.001   1_545     S
V254     Er255    9.999   .     S
V254     V502    10.001   .     S
V254     V494    10.001   1_545     S
V254     V258    10.001   1_455     S
V254     V262    10.001   1_445     S
Er255     S256    10.0   .     S
H257     S260    9.999   .     S
H257     H277    10.001   1_655     S
H257     H273    10.001   1_655     S
H257     H321    10.001   .     S
V258     Er259    9.999   .     S
V258     V498    10.001   1_545     S
V258     V254    10.001   1_655     S
V258     V262    10.001   1_545     S
V258     V502    10.001   1_655     S
Er259     S260    10.0   .     S
H261     S264    9.999   .     S
H261     H325    10.001   .     S
H261     H365    10.001   .     S
V262     Er263    9.999   .     S
V262     V494    10.001   1_655     S
V262     V498    10.001   .     S
V262     V258    10.001   1_565     S
V262     V254    10.001   1_665     S
Er263     S264    10.0   .     S
H265     H233    10.001   1_554     S
H265     S268    9.999   .     S
H265     H337    10.001   .     S
H265     H201    10.001   1_554     S
V266     Er267    9.999   .     S
V266     V570    10.001   .     S
V266     V274    10.001   .     S
V266     V270    10.001   .     S
V266     V574    10.001   .     S
Er267     S268    10.0   .     S
H269     H249    10.001   1_545     S
H269     S272    9.999   .     S
H269     H293    10.001   1_545     S
V270     Er271    9.999   .     S
V270     V574    10.001   .     S
V270     V566    10.001   .     S
V270     V274    10.001   .     S
Er271     S272    10.0   .     S
H273     H257    10.001   1_455     S
H273     S276    9.999   .     S
H273     H277    10.001   .     S
H273     H321    10.001   1_455     S
V274     Er275    9.999   .     S
V274     V566    10.001   .     S
V274     V570    10.001   .     S
Er275     S276    10.0   .     S
H277     H257    10.001   1_455     S
H277     S280    9.999   .     S
H277     H321    10.001   1_455     S
V278     Er279    9.999   .     S
V278     V546    10.001   .     S
V278     V282    10.001   1_455     S
V278     V286    10.001   .     S
V278     V550    10.001   1_455     S
Er279     S280    10.0   .     S
H281     S284    9.999   .     S
H281     H369    10.001   .     S
H281     H377    10.001   .     S
V282     Er283    9.999   .     S
V282     V550    10.001   .     S
V282     V542    10.001   .     S
V282     V278    10.001   1_655     S
V282     V286    10.001   1_655     S
Er283     S284    10.0   .     S
H285     H357    10.001   .     S
H285     H305    10.001   .     S
H285     S288    9.999   .     S
H285     H297    10.001   .     S
V286     Er287    9.999   .     S
V286     V542    10.001   1_455     S
V286     V546    10.001   .     S
V286     V282    10.001   1_455     S
Er287     S288    10.0   .     S
H289     H329    10.001   1_455     S
H289     H217    10.001   1_455     S
H289     S292    9.999   .     S
V290     Er291    9.999   .     S
V290     V402    10.001   .     S
V290     V294    10.001   .     S
V290     V298    10.001   .     S
V290     V406    10.001   .     S
Er291     S292    10.0   .     S
H293     H205    10.001   1_565     S
H293     S296    9.999   .     S
H293     H269    10.001   1_565     S
V294     Er295    9.999   .     S
V294     V398    10.001   .     S
V294     V402    10.001   .     S
V294     V298    10.001   .     S
Er295     S296    10.0   .     S
H297     H357    10.001   .     S
H297     S300    9.999   .     S
H297     H305    10.001   .     S
V298     Er299    9.999   .     S
V298     V406    10.001   .     S
V298     V398    10.001   .     S
Er299     S300    10.0   .     S
H301     S304    9.999   .     S
H301     H381    10.001   .     S
V302     Er303    9.999   .     S
V302     V562    10.001   .     S
V302     V558    10.001   .     S
V302     V310    10.001   .     S
V302     V306    10.001   .     S
Er303     S304    10.0   .     S
H305     S308    9.999   .     S
H305     H357    10.001   .     S
V306     Er307    9.999   .     S
V306     V554    10.001   .     S
V306     V310    10.001   .     S
V306     V562    10.001   .     S
Er307     S308    10.0   .     S
H309     S312    9.999   .     S
H309     H317    10.001   .     S
H309     H341    10.001   .     S
H309     H333    10.001   .     S
V310     Er311    9.999   .     S
V310     V558    10.001   .     S
V310     V554    10.001   .     S
Er311     S312    10.0   .     S
H313     S316    9.999   .     S
H313     H373    10.001   1_554     S
H313     H225    10.001   1_554     S
V314     Er315    9.999   .     S
V314     V426    10.001   .     S
V314     V322    10.001   .     S
V314     V318    10.001   .     S
V314     V430    10.001   .     S
Er315     S316    10.0   .     S
H317     S320    9.999   .     S
H317     H341    10.001   .     S
H317     H333    10.001   .     S
V318     Er319    9.999   .     S
V318     V430    10.001   .     S
V318     V422    10.001   .     S
V318     V322    10.001   .     S
Er319     S320    10.0   .     S
H321     H277    10.001   1_655     S
H321     S324    9.999   .     S
H321     H273    10.001   1_655     S
V322     Er323    9.999   .     S
V322     V422    10.001   .     S
V322     V426    10.001   .     S
Er323     S324    10.0   .     S
H325     S328    9.999   .     S
H325     H365    10.001   .     S
V326     Er327    9.999   .     S
V326     V514    10.001   .     S
V326     V510    10.001   .     S
V326     V334    10.001   .     S
V326     V330    10.001   .     S
Er327     S328    10.0   .     S
H329     H289    10.001   1_655     S
H329     S332    9.999   .     S
H329     H229    10.001   1_655     S
V330     Er331    9.999   .     S
V330     V506    10.001   .     S
V330     V334    10.001   .     S
V330     V514    10.001   .     S
Er331     S332    10.0   .     S
H333     S336    9.999   .     S
H333     H341    10.001   .     S
V334     Er335    9.999   .     S
V334     V510    10.001   .     S
V334     V506    10.001   .     S
Er335     S336    10.0   .     S
H337     H233    10.001   1_554     S
H337     S340    9.999   .     S
H337     H201    10.001   1_554     S
V338     Er339    9.999   .     S
V338     V534    10.001   .     S
V338     V530    10.001   1_554     S
V338     V342    10.001   .     S
V338     V346    10.001   1_554     S
Er339     S340    10.0   .     S
H341     S344    9.999   .     S
V342     Er343    9.999   .     S
V342     V538    10.001   1_554     S
V342     V534    10.001   .     S
V342     V346    10.001   1_554     S
Er343     S344    10.0   .     S
H345     S348    9.999   .     S
H345     H349    10.001   .     S
H345     H361    10.001   .     S
V346     Er347    9.999   .     S
V346     V530    10.001   .     S
V346     V338    10.001   1_556     S
V346     V342    10.001   1_556     S
V346     V538    10.001   .     S
Er347     S348    10.0   .     S
H349     S352    9.999   .     S
H349     H361    10.001   .     S
V350     Er351    9.999   .     S
V350     V466    10.001   .     S
V350     V462    10.001   .     S
V350     V358    10.001   .     S
V350     V354    10.001   .     S
Er351     S352    10.0   .     S
H353     H193    10.001   1_565     S
H353     S356    9.999   .     S
H353     H253    10.001   1_565     S
V354     Er355    9.999   .     S
V354     V458    10.001   .     S
V354     V358    10.001   .     S
V354     V466    10.001   .     S
Er355     S356    10.0   .     S
H357     S360    9.999   .     S
V358     Er359    9.999   .     S
V358     V462    10.001   .     S
V358     V458    10.001   .     S
Er359     S360    10.0   .     S
H361     S364    9.999   .     S
V362     Er363    9.999   .     S
V362     V526    10.001   .     S
V362     V522    10.001   .     S
V362     V366    10.001   .     S
V362     V370    10.001   .     S
Er363     S364    10.0   .     S
H365     S368    9.999   .     S
V366     Er367    9.999   .     S
V366     V522    10.001   .     S
V366     V518    10.001   .     S
V366     V370    10.001   .     S
Er367     S368    10.0   .     S
H369     S372    9.999   .     S
H369     H377    10.001   .     S
V370     Er371    9.999   .     S
V370     V518    10.001   .     S
V370     V526    10.001   .     S
Er371     S372    10.0   .     S
H373     S376    9.999   .     S
H373     H313    10.001   1_556     S
H373     H241    10.001   1_556     S
V374     Er375    9.999   .     S
V374     V470    10.001   .     S
V374     V382    10.001   .     S
V374     V378    10.001   .     S
V374     V478    10.001   .     S
Er375     S376    10.0   .     S
H377     S380    9.999   .     S
V378     Er379    9.999   .     S
V378     V478    10.001   .     S
V378     V474    10.001   .     S
V378     V382    10.001   .     S
Er379     S380    10.0   .     S
H381     S384    9.999   .     S
V382     Er383    9.999   .     S
V382     V474    10.001   .     S
V382     V470    10.001   .     S
Er383     S384    10.0   .     S
H385     S388    9.999   .     S
H385     H469    10.001   1_565     S
H385     H521    10.001   .     S
H385     H409    10.001   1_565     S
V386     V390    10.001   .     S
V386     V394    10.001   1_565     S
V386     V214    10.001   1_565     S
V386     Er387    9.999   .     S
Er387     S388    10.0   .     S
H389     S392    9.999   .     S
H389     H397    10.001   .     S
H389     H553    10.001   .     S
H389     H509    10.001   .     S
V390     V394    10.001   1_565     S
V390     Er391    9.999   .     S
V390     V206    10.001   1_565     S
Er391     S392    10.0   .     S
H393     S396    9.999   .     S
H393     H453    10.001   .     S
H393     H565    10.001   .     S
H393     H501    10.001   .     S
V394     V386    10.001   1_545     S
V394     V390    10.001   1_545     S
V394     Er395    9.999   .     S
Er395     S396    10.0   .     S
H397     S400    9.999   .     S
H397     H509    10.001   .     S
H397     H553    10.001   .     S
V398     V406    10.001   .     S
V398     V402    10.001   .     S
V398     Er399    9.999   .     S
Er399     S400    10.0   .     S
H401     S404    9.999   .     S
H401     H413    10.001   1_554     S
H401     H465    10.001   1_554     S
H401     H485    10.001   .     S
V402     V406    10.001   .     S
V402     Er403    9.999   .     S
Er403     S404    10.0   .     S
H405     S408    9.999   .     S
H405     H545    10.001   .     S
H405     H569    10.001   .     S
H405     H441    10.001   .     S
V406     Er407    9.999   .     S
Er407     S408    10.0   .     S
H409     S412    9.999   .     S
H409     H521    10.001   1_545     S
H409     H385    10.001   1_545     S
H409     H469    10.001   .     S
V410     V246    10.001   1_545     S
V410     V418    10.001   1_556     S
V410     V414    10.001   1_545     S
V410     Er411    9.999   .     S
V410     V242    10.001   1_556     S
Er411     S412    10.0   .     S
H413     S416    9.999   .     S
H413     H401    10.001   1_556     S
H413     H465    10.001   .     S
H413     H485    10.001   1_556     S
V414     V410    10.001   1_565     S
V414     V418    10.001   1_566     S
V414     V250    10.001   1_556     S
V414     Er415    9.999   .     S
Er415     S416    10.0   .     S
H417     S420    9.999   .     S
H417     H429    10.001   .     S
H417     H573    10.001   .     S
H417     H533    10.001   .     S
V418     V410    10.001   1_554     S
V418     V414    10.001   1_544     S
V418     Er419    9.999   .     S
V418     V250    10.001   1_545     S
Er419     S420    10.0   .     S
H421     S424    9.999   .     S
H421     H473    10.001   .     S
H421     H549    10.001   .     S
H421     H557    10.001   .     S
V422     V430    10.001   .     S
V422     V426    10.001   .     S
V422     Er423    9.999   .     S
Er423     S424    10.0   .     S
H425     S428    9.999   .     S
H425     H497    10.001   1_545     S
H425     H513    10.001   1_545     S
H425     H489    10.001   .     S
V426     V430    10.001   .     S
V426     Er427    9.999   .     S
Er427     S428    10.0   .     S
H429     S432    9.999   .     S
H429     H533    10.001   .     S
H429     H573    10.001   .     S
V430     Er431    9.999   .     S
Er431     S432    10.0   .     S
H433     S436    9.999   .     S
H433     H525    10.001   1_554     S
H433     H537    10.001   1_554     S
H433     H505    10.001   .     S
V434     V442    10.001   1_655     S
V434     V438    10.001   1_554     S
V434     V238    10.001   1_554     S
V434     Er435    9.999   .     S
V434     V230    10.001   1_655     S
Er435     S436    10.0   .     S
H437     S440    9.999   .     S
H437     H449    10.001   1_655     S
H437     H477    10.001   .     S
H437     H481    10.001   1_655     S
V438     V234    10.001   1_655     S
V438     V434    10.001   1_556     S
V438     V442    10.001   1_656     S
V438     Er439    9.999   .     S
Er439     S440    10.0   .     S
H441     S444    9.999   .     S
H441     H569    10.001   .     S
H441     H545    10.001   .     S
V442     V434    10.001   1_455     S
V442     V438    10.001   1_454     S
V442     Er443    9.999   .     S
V442     V234    10.001   1_554     S
Er443     S444    10.0   .     S
H445     S448    9.999   .     S
H445     H529    10.001   .     S
H445     H461    10.001   .     S
H445     H561    10.001   .     S
V446     V450    10.001   .     S
V446     V454    10.001   .     S
V446     Er447    9.999   .     S
Er447     S448    10.0   .     S
H449     S452    9.999   .     S
H449     H437    10.001   1_455     S
H449     H477    10.001   1_455     S
H449     H481    10.001   .     S
V450     V454    10.001   .     S
V450     Er451    9.999   .     S
Er451     S452    10.0   .     S
H453     S456    9.999   .     S
H453     H565    10.001   .     S
H453     H501    10.001   .     S
V454     Er455    9.999   .     S
Er455     S456    10.0   .     S
H457     S460    9.999   .     S
H457     H541    10.001   1_455     S
H457     H517    10.001   1_455     S
H457     H493    10.001   .     S
V458     V466    10.001   .     S
V458     V462    10.001   .     S
V458     Er459    9.999   .     S
Er459     S460    10.0   .     S
H461     S464    9.999   .     S
H461     H529    10.001   .     S
H461     H561    10.001   .     S
V462     V466    10.001   .     S
V462     Er463    9.999   .     S
Er463     S464    10.0   .     S
H465     S468    9.999   .     S
H465     H401    10.001   1_556     S
H465     H485    10.001   1_556     S
V466     Er467    9.999   .     S
Er467     S468    10.0   .     S
H469     S472    9.999   .     S
H469     H385    10.001   1_545     S
H469     H521    10.001   1_545     S
V470     V478    10.001   .     S
V470     V474    10.001   .     S
V470     Er471    9.999   .     S
Er471     S472    10.0   .     S
H473     S476    9.999   .     S
H473     H549    10.001   .     S
H473     H557    10.001   .     S
V474     V478    10.001   .     S
V474     Er475    9.999   .     S
Er475     S476    10.0   .     S
H477     S480    9.999   .     S
H477     H449    10.001   1_655     S
H477     H481    10.001   1_655     S
V478     Er479    9.999   .     S
Er479     S480    10.0   .     S
H481     H437    10.001   1_455     S
H481     S484    9.999   .     S
H481     H477    10.001   1_455     S
V482     V490    10.001   1_456     S
V482     V486    10.001   1_546     S
V482     V226    10.001   1_455     S
V482     Er483    9.999   .     S
V482     V222    10.001   1_545     S
Er483     S484    10.0   .     S
H485     H413    10.001   1_554     S
H485     S488    9.999   .     S
H485     H465    10.001   1_554     S
V486     V222    10.001   1_554     S
V486     V482    10.001   1_564     S
V486     V490    10.001   1_465     S
V486     Er487    9.999   .     S
V486     V218    10.001   1_455     S
Er487     S488    10.0   .     S
H489     S492    9.999   .     S
H489     H497    10.001   1_545     S
H489     H513    10.001   1_545     S
V490     V218    10.001   1_545     S
V490     V482    10.001   1_654     S
V490     V486    10.001   1_645     S
V490     Er491    9.999   .     S
V490     V226    10.001   1_554     S
Er491     S492    10.0   .     S
H493     S496    9.999   .     S
H493     H541    10.001   1_455     S
H493     H517    10.001   1_455     S
V494     V498    10.001   1_455     S
V494     V502    10.001   1_565     S
V494     V262    10.001   1_455     S
V494     Er495    9.999   .     S
V494     V254    10.001   1_565     S
Er495     S496    10.0   .     S
H497     H425    10.001   1_565     S
H497     S500    9.999   .     S
H497     H513    10.001   .     S
H497     H489    10.001   1_565     S
V498     V258    10.001   1_565     S
V498     V494    10.001   1_655     S
V498     V502    10.001   1_665     S
V498     Er499    9.999   .     S
Er499     S500    10.0   .     S
H501     S504    9.999   .     S
H501     H565    10.001   .     S
V502     V494    10.001   1_545     S
V502     V498    10.001   1_445     S
V502     Er503    9.999   .     S
V502     V258    10.001   1_455     S
Er503     S504    10.0   .     S
H505     S508    9.999   .     S
H505     H537    10.001   1_554     S
H505     H525    10.001   1_554     S
V506     V514    10.001   .     S
V506     V510    10.001   .     S
V506     Er507    9.999   .     S
Er507     S508    10.0   .     S
H509     S512    9.999   .     S
H509     H553    10.001   .     S
V510     V514    10.001   .     S
V510     Er511    9.999   .     S
Er511     S512    10.0   .     S
H513     S516    9.999   .     S
H513     H425    10.001   1_565     S
H513     H489    10.001   1_565     S
V514     Er515    9.999   .     S
Er515     S516    10.0   .     S
H517     H493    10.001   1_655     S
H517     H457    10.001   1_655     S
H517     S520    9.999   .     S
H517     H541    10.001   .     S
V518     V526    10.001   .     S
V518     V522    10.001   .     S
V518     Er519    9.999   .     S
Er519     S520    10.0   .     S
H521     H469    10.001   1_565     S
H521     H409    10.001   1_565     S
H521     S524    9.999   .     S
V522     V526    10.001   .     S
V522     Er523    9.999   .     S
Er523     S524    10.0   .     S
H525     S528    9.999   .     S
H525     H505    10.001   1_556     S
H525     H433    10.001   1_556     S
H525     H537    10.001   .     S
V526     Er527    9.999   .     S
Er527     S528    10.0   .     S
H529     S532    9.999   .     S
H529     H561    10.001   .     S
V530     V538    10.001   .     S
V530     V534    10.001   1_556     S
V530     Er531    9.999   .     S
V530     V338    10.001   1_556     S
Er531     S532    10.0   .     S
H533     H573    10.001   .     S
H533     S536    9.999   .     S
V534     V538    10.001   1_554     S
V534     V530    10.001   1_554     S
V534     Er535    9.999   .     S
Er535     S536    10.0   .     S
H537     H505    10.001   1_556     S
H537     H433    10.001   1_556     S
H537     S540    9.999   .     S
V538     V342    10.001   1_556     S
V538     V534    10.001   1_556     S
V538     Er539    9.999   .     S
Er539     S540    10.0   .     S
H541     H457    10.001   1_655     S
H541     H493    10.001   1_655     S
H541     S544    9.999   .     S
V542     V546    10.001   1_655     S
V542     V550    10.001   .     S
V542     V286    10.001   1_655     S
V542     Er543    9.999   .     S
Er543     S544    10.0   .     S
H545     S548    9.999   .     S
H545     H569    10.001   .     S
V546     V542    10.001   1_455     S
V546     V550    10.001   1_455     S
V546     Er547    9.999   .     S
Er547     S548    10.0   .     S
H549     S552    9.999   .     S
H549     H557    10.001   .     S
V550     V546    10.001   1_655     S
V550     Er551    9.999   .     S
V550     V278    10.001   1_655     S
Er551     S552    10.0   .     S
H553     S556    9.999   .     S
V554     V562    10.001   .     S
V554     V558    10.001   .     S
V554     Er555    9.999   .     S
Er555     S556    10.0   .     S
H557     S560    9.999   .     S
V558     V562    10.001   .     S
V558     Er559    9.999   .     S
Er559     S560    10.0   .     S
H561     S564    9.999   .     S
V562     Er563    9.999   .     S
Er563     S564    10.0   .     S
H565     S568    9.999   .     S
V566     V574    10.001   .     S
V566     V570    10.001   .     S
V566     Er567    9.999   .     S
Er567     S568    10.0   .     S
H569     S572    9.999   .     S
V570     V574    10.001   .     S
V570     Er571    9.999   .     S
Er571     S572    10.0   .     S
H573     S576    9.999   .     S
V574     Er575    9.999   .     S
Er575     S576    10.0   .     S
