data_gdla
_audit_creation_date              2020-02-02
_audit_creation_method            'Pymatgen'
_symmetry_space_group_name_H-M    'P1'
_symmetry_Int_Tables_number       1
loop_
_symmetry_equiv_pos_as_xyz
  x,y,z
_cell_length_a                    112.2433
_cell_length_b                    112.2433
_cell_length_c                    112.2433
_cell_angle_alpha                 90.0
_cell_angle_beta                 90.0
_cell_angle_gamma                 90.0
loop_
_atom_site_label
_atom_site_type_symbol
_atom_site_fract_x
_atom_site_fract_y
_atom_site_fract_z
Ti1     Ti     0.4023   0.224   0.1608
Ti2     Ti     0.3392   0.224   0.0977
Ti3     Ti     0.224   0.4023   0.1608
Ti4     Ti     0.224   0.3392   0.0977
Ti5     Ti     0.4023   0.1608   0.224
Ti6     Ti     0.3392   0.0977   0.224
Ti7     Ti     0.1608   0.4023   0.224
Ti8     Ti     0.0977   0.3392   0.224
Ti9     Ti     0.224   0.1608   0.4023
Ti10     Ti     0.224   0.0977   0.3392
Ti11     Ti     0.1608   0.224   0.4023
Ti12     Ti     0.0977   0.224   0.3392
V13     V     0.5   0.2189   0.2811
V14     V     0.5   0.2811   0.2189
Er15     Er     0.4553   0.1433   0.2936
Er16     Er     0.4553   0.2936   0.1433
Er17     Er     0.4553   0.2064   0.3567
Er18     Er     0.4553   0.3567   0.2064
Er19     Er     0.5447   0.1433   0.2936
Er20     Er     0.5447   0.2936   0.1433
Er21     Er     0.5447   0.2064   0.3567
Er22     Er     0.5447   0.3567   0.2064
Ti23     Ti     0.3392   0.276   0.4023
Ti24     Ti     0.4023   0.276   0.3392
V25     V     0.2189   0.2811   0.5
V26     V     0.2811   0.2189   0.5
Er27     Er     0.1433   0.2936   0.4553
Er28     Er     0.2936   0.1433   0.4553
Er29     Er     0.2064   0.3567   0.4553
Er30     Er     0.3567   0.2064   0.4553
Er31     Er     0.1433   0.2936   0.5447
Er32     Er     0.2936   0.1433   0.5447
Er33     Er     0.2064   0.3567   0.5447
Er34     Er     0.3567   0.2064   0.5447
Ti35     Ti     0.3392   0.4023   0.276
Ti36     Ti     0.4023   0.3392   0.276
Ti37     Ti     0.276   0.4023   0.3392
Ti38     Ti     0.276   0.3392   0.4023
V39     V     0.2189   0.5   0.2811
V40     V     0.2811   0.5   0.2189
Er41     Er     0.1433   0.4553   0.2936
Er42     Er     0.2936   0.4553   0.1433
Er43     Er     0.2064   0.4553   0.3567
Er44     Er     0.3567   0.4553   0.2064
Er45     Er     0.1433   0.5447   0.2936
Er46     Er     0.2936   0.5447   0.1433
Er47     Er     0.2064   0.5447   0.3567
Er48     Er     0.3567   0.5447   0.2064
Ti49     Ti     0.6608   0.224   0.9023
Ti50     Ti     0.5977   0.224   0.8392
Ti51     Ti     0.224   0.5977   0.8392
Ti52     Ti     0.224   0.6608   0.9023
Ti53     Ti     0.224   0.9023   0.6608
Ti54     Ti     0.224   0.8392   0.5977
Ti55     Ti     0.5977   0.8392   0.224
Ti56     Ti     0.6608   0.9023   0.224
Ti57     Ti     0.8392   0.224   0.5977
Ti58     Ti     0.9023   0.224   0.6608
Ti59     Ti     0.9023   0.6608   0.224
Ti60     Ti     0.8392   0.5977   0.224
Ti61     Ti     0.0977   0.1608   0.276
Ti62     Ti     0.1608   0.0977   0.276
V63     V     0.2189   0.0   0.2189
V64     V     0.2811   0.0   0.2811
Er65     Er     0.2064   0.0447   0.1433
Er66     Er     0.1433   0.0447   0.2064
Er67     Er     0.2936   0.0447   0.3567
Er68     Er     0.3567   0.0447   0.2936
Er69     Er     0.1433   0.9553   0.2064
Er70     Er     0.2064   0.9553   0.1433
Er71     Er     0.2936   0.9553   0.3567
Er72     Er     0.3567   0.9553   0.2936
Ti73     Ti     0.276   0.1608   0.0977
Ti74     Ti     0.276   0.0977   0.1608
V75     V     0.2189   0.2189   0.0
V76     V     0.2811   0.2811   0.0
Er77     Er     0.1433   0.2064   0.0447
Er78     Er     0.2064   0.1433   0.0447
Er79     Er     0.3567   0.2936   0.0447
Er80     Er     0.2936   0.3567   0.0447
Er81     Er     0.2064   0.1433   0.9553
Er82     Er     0.1433   0.2064   0.9553
Er83     Er     0.2936   0.3567   0.9553
Er84     Er     0.3567   0.2936   0.9553
Ti85     Ti     0.0977   0.276   0.1608
Ti86     Ti     0.1608   0.276   0.0977
V87     V     0.0   0.2189   0.2189
V88     V     0.0   0.2811   0.2811
Er89     Er     0.0447   0.1433   0.2064
Er90     Er     0.0447   0.2064   0.1433
Er91     Er     0.0447   0.3567   0.2936
Er92     Er     0.0447   0.2936   0.3567
Er93     Er     0.9553   0.2064   0.1433
Er94     Er     0.9553   0.1433   0.2064
Er95     Er     0.9553   0.2936   0.3567
Er96     Er     0.9553   0.3567   0.2936
Ti97     Ti     0.6608   0.0977   0.224
Ti98     Ti     0.5977   0.1608   0.224
Ti99     Ti     0.0977   0.6608   0.224
Ti100     Ti     0.1608   0.5977   0.224
Ti101     Ti     0.5977   0.6608   0.276
Ti102     Ti     0.6608   0.5977   0.276
Ti103     Ti     0.6608   0.276   0.5977
Ti104     Ti     0.5977   0.276   0.6608
Ti105     Ti     0.276   0.5977   0.6608
Ti106     Ti     0.276   0.6608   0.5977
Ti107     Ti     0.776   0.4023   0.1608
Ti108     Ti     0.776   0.3392   0.0977
Ti109     Ti     0.224   0.4023   0.8392
Ti110     Ti     0.224   0.3392   0.9023
Ti111     Ti     0.4023   0.224   0.8392
Ti112     Ti     0.3392   0.224   0.9023
Ti113     Ti     0.4023   0.776   0.1608
Ti114     Ti     0.3392   0.776   0.0977
Ti115     Ti     0.4023   0.1608   0.776
Ti116     Ti     0.3392   0.0977   0.776
Ti117     Ti     0.4023   0.8392   0.224
Ti118     Ti     0.3392   0.9023   0.224
Ti119     Ti     0.8392   0.4023   0.224
Ti120     Ti     0.9023   0.3392   0.224
Ti121     Ti     0.1608   0.4023   0.776
Ti122     Ti     0.0977   0.3392   0.776
Ti123     Ti     0.224   0.8392   0.4023
Ti124     Ti     0.224   0.9023   0.3392
Ti125     Ti     0.776   0.1608   0.4023
Ti126     Ti     0.776   0.0977   0.3392
Ti127     Ti     0.1608   0.776   0.4023
Ti128     Ti     0.0977   0.776   0.3392
Ti129     Ti     0.8392   0.224   0.4023
Ti130     Ti     0.9023   0.224   0.3392
Ti131     Ti     0.4023   0.776   0.8392
Ti132     Ti     0.3392   0.776   0.9023
Ti133     Ti     0.4023   0.6608   0.276
Ti134     Ti     0.3392   0.5977   0.276
Ti135     Ti     0.776   0.4023   0.8392
Ti136     Ti     0.776   0.3392   0.9023
Ti137     Ti     0.6608   0.4023   0.276
Ti138     Ti     0.5977   0.3392   0.276
Ti139     Ti     0.776   0.8392   0.4023
Ti140     Ti     0.776   0.9023   0.3392
Ti141     Ti     0.6608   0.276   0.4023
Ti142     Ti     0.5977   0.276   0.3392
Ti143     Ti     0.4023   0.276   0.6608
Ti144     Ti     0.3392   0.276   0.5977
Ti145     Ti     0.4023   0.8392   0.776
Ti146     Ti     0.3392   0.9023   0.776
Ti147     Ti     0.276   0.4023   0.6608
Ti148     Ti     0.276   0.3392   0.5977
Ti149     Ti     0.8392   0.4023   0.776
Ti150     Ti     0.9023   0.3392   0.776
Ti151     Ti     0.8392   0.776   0.4023
Ti152     Ti     0.9023   0.776   0.3392
Ti153     Ti     0.276   0.6608   0.4023
Ti154     Ti     0.276   0.5977   0.3392
V155     V     0.2811   0.5   0.7811
V156     V     0.2189   0.5   0.7189
Er157     Er     0.2064   0.4553   0.6433
Er158     Er     0.2936   0.4553   0.8567
Er159     Er     0.1433   0.4553   0.7064
Er160     Er     0.3567   0.4553   0.7936
Er161     Er     0.2064   0.5447   0.6433
Er162     Er     0.2936   0.5447   0.8567
Er163     Er     0.1433   0.5447   0.7064
Er164     Er     0.3567   0.5447   0.7936
Ti165     Ti     0.4023   0.3392   0.724
Ti166     Ti     0.3392   0.4023   0.724
V167     V     0.5   0.2811   0.7811
V168     V     0.5   0.2189   0.7189
Er169     Er     0.4553   0.2064   0.6433
Er170     Er     0.4553   0.2936   0.8567
Er171     Er     0.4553   0.1433   0.7064
Er172     Er     0.4553   0.3567   0.7936
Er173     Er     0.5447   0.2064   0.6433
Er174     Er     0.5447   0.2936   0.8567
Er175     Er     0.5447   0.1433   0.7064
Er176     Er     0.5447   0.3567   0.7936
V177     V     0.2811   0.7811   0.5
V178     V     0.2189   0.7189   0.5
Er179     Er     0.2064   0.6433   0.4553
Er180     Er     0.2936   0.8567   0.4553
Er181     Er     0.1433   0.7064   0.4553
Er182     Er     0.3567   0.7936   0.4553
Er183     Er     0.2064   0.6433   0.5447
Er184     Er     0.2936   0.8567   0.5447
Er185     Er     0.1433   0.7064   0.5447
Er186     Er     0.3567   0.7936   0.5447
Ti187     Ti     0.4023   0.724   0.3392
Ti188     Ti     0.3392   0.724   0.4023
V189     V     0.5   0.7811   0.2811
V190     V     0.5   0.7189   0.2189
Er191     Er     0.4553   0.8567   0.2936
Er192     Er     0.4553   0.6433   0.2064
Er193     Er     0.4553   0.7064   0.1433
Er194     Er     0.4553   0.7936   0.3567
Er195     Er     0.5447   0.8567   0.2936
Er196     Er     0.5447   0.6433   0.2064
Er197     Er     0.5447   0.7064   0.1433
Er198     Er     0.5447   0.7936   0.3567
Ti199     Ti     0.6608   0.724   0.5977
Ti200     Ti     0.5977   0.724   0.6608
Ti201     Ti     0.4023   0.6608   0.724
Ti202     Ti     0.3392   0.5977   0.724
Ti203     Ti     0.4023   0.724   0.6608
Ti204     Ti     0.3392   0.724   0.5977
V205     V     0.5   0.7811   0.7189
V206     V     0.5   0.7189   0.7811
Er207     Er     0.4553   0.8567   0.7064
Er208     Er     0.4553   0.7936   0.6433
Er209     Er     0.4553   0.6433   0.7936
Er210     Er     0.4553   0.7064   0.8567
Er211     Er     0.5447   0.7936   0.6433
Er212     Er     0.5447   0.8567   0.7064
Er213     Er     0.5447   0.7064   0.8567
Er214     Er     0.5447   0.6433   0.7936
Ti215     Ti     0.6608   0.724   0.4023
Ti216     Ti     0.5977   0.724   0.3392
Ti217     Ti     0.724   0.6608   0.4023
Ti218     Ti     0.724   0.5977   0.3392
V219     V     0.7811   0.7189   0.5
V220     V     0.7189   0.7811   0.5
Er221     Er     0.8567   0.7064   0.4553
Er222     Er     0.7936   0.6433   0.4553
Er223     Er     0.6433   0.7936   0.4553
Er224     Er     0.7064   0.8567   0.4553
Er225     Er     0.7936   0.6433   0.5447
Er226     Er     0.8567   0.7064   0.5447
Er227     Er     0.7064   0.8567   0.5447
Er228     Er     0.6433   0.7936   0.5447
Ti229     Ti     0.6608   0.5977   0.724
Ti230     Ti     0.5977   0.6608   0.724
Ti231     Ti     0.724   0.5977   0.6608
Ti232     Ti     0.724   0.6608   0.5977
Ti233     Ti     0.6608   0.4023   0.724
Ti234     Ti     0.5977   0.3392   0.724
Ti235     Ti     0.724   0.4023   0.6608
Ti236     Ti     0.724   0.3392   0.5977
V237     V     0.7811   0.5   0.7189
V238     V     0.7189   0.5   0.7811
Er239     Er     0.7936   0.4553   0.6433
Er240     Er     0.8567   0.4553   0.7064
Er241     Er     0.7064   0.4553   0.8567
Er242     Er     0.6433   0.4553   0.7936
Er243     Er     0.8567   0.5447   0.7064
Er244     Er     0.7936   0.5447   0.6433
Er245     Er     0.6433   0.5447   0.7936
Er246     Er     0.7064   0.5447   0.8567
V247     V     0.7811   0.2811   0.5
V248     V     0.7189   0.2189   0.5
Er249     Er     0.8567   0.2936   0.4553
Er250     Er     0.6433   0.2064   0.4553
Er251     Er     0.7064   0.1433   0.4553
Er252     Er     0.7936   0.3567   0.4553
Er253     Er     0.8567   0.2936   0.5447
Er254     Er     0.6433   0.2064   0.5447
Er255     Er     0.7064   0.1433   0.5447
Er256     Er     0.7936   0.3567   0.5447
Ti257     Ti     0.724   0.4023   0.3392
Ti258     Ti     0.724   0.3392   0.4023
V259     V     0.7811   0.5   0.2811
V260     V     0.7189   0.5   0.2189
Er261     Er     0.8567   0.4553   0.2936
Er262     Er     0.6433   0.4553   0.2064
Er263     Er     0.7064   0.4553   0.1433
Er264     Er     0.7936   0.4553   0.3567
Er265     Er     0.8567   0.5447   0.2936
Er266     Er     0.6433   0.5447   0.2064
Er267     Er     0.7064   0.5447   0.1433
Er268     Er     0.7936   0.5447   0.3567
Ti269     Ti     0.6608   0.776   0.9023
Ti270     Ti     0.5977   0.776   0.8392
Ti271     Ti     0.6608   0.224   0.0977
Ti272     Ti     0.5977   0.224   0.1608
Ti273     Ti     0.224   0.6608   0.0977
Ti274     Ti     0.224   0.5977   0.1608
Ti275     Ti     0.776   0.6608   0.9023
Ti276     Ti     0.776   0.5977   0.8392
Ti277     Ti     0.776   0.9023   0.6608
Ti278     Ti     0.776   0.8392   0.5977
Ti279     Ti     0.224   0.0977   0.6608
Ti280     Ti     0.224   0.1608   0.5977
Ti281     Ti     0.6608   0.9023   0.776
Ti282     Ti     0.5977   0.8392   0.776
Ti283     Ti     0.9023   0.6608   0.776
Ti284     Ti     0.8392   0.5977   0.776
Ti285     Ti     0.0977   0.224   0.6608
Ti286     Ti     0.1608   0.224   0.5977
Ti287     Ti     0.9023   0.776   0.6608
Ti288     Ti     0.8392   0.776   0.5977
Ti289     Ti     0.8392   0.276   0.9023
Ti290     Ti     0.9023   0.276   0.8392
Ti291     Ti     0.276   0.9023   0.8392
Ti292     Ti     0.276   0.8392   0.9023
Ti293     Ti     0.9023   0.8392   0.276
Ti294     Ti     0.8392   0.9023   0.276
Ti295     Ti     0.776   0.6608   0.0977
Ti296     Ti     0.776   0.5977   0.1608
Ti297     Ti     0.6608   0.776   0.0977
Ti298     Ti     0.5977   0.776   0.1608
Ti299     Ti     0.6608   0.0977   0.776
Ti300     Ti     0.5977   0.1608   0.776
Ti301     Ti     0.776   0.0977   0.6608
Ti302     Ti     0.776   0.1608   0.5977
Ti303     Ti     0.0977   0.776   0.6608
Ti304     Ti     0.1608   0.776   0.5977
Ti305     Ti     0.0977   0.6608   0.776
Ti306     Ti     0.1608   0.5977   0.776
Ti307     Ti     0.8392   0.276   0.0977
Ti308     Ti     0.9023   0.276   0.1608
Ti309     Ti     0.276   0.0977   0.8392
Ti310     Ti     0.276   0.1608   0.9023
Ti311     Ti     0.276   0.8392   0.0977
Ti312     Ti     0.276   0.9023   0.1608
Ti313     Ti     0.0977   0.276   0.8392
Ti314     Ti     0.1608   0.276   0.9023
Ti315     Ti     0.8392   0.0977   0.276
Ti316     Ti     0.9023   0.1608   0.276
Ti317     Ti     0.0977   0.8392   0.276
Ti318     Ti     0.1608   0.9023   0.276
V319     V     0.7811   0.2189   0.0
V320     V     0.7189   0.2811   0.0
Er321     Er     0.7936   0.1433   0.0447
Er322     Er     0.8567   0.2064   0.0447
Er323     Er     0.6433   0.2936   0.0447
Er324     Er     0.7064   0.3567   0.0447
Er325     Er     0.8567   0.2064   0.9553
Er326     Er     0.6433   0.2936   0.9553
Er327     Er     0.7936   0.1433   0.9553
Er328     Er     0.7064   0.3567   0.9553
Ti329     Ti     0.724   0.0977   0.1608
Ti330     Ti     0.724   0.1608   0.0977
V331     V     0.7811   0.0   0.2189
V332     V     0.7189   0.0   0.2811
Er333     Er     0.8567   0.0447   0.2064
Er334     Er     0.7936   0.0447   0.1433
Er335     Er     0.6433   0.0447   0.2936
Er336     Er     0.7064   0.0447   0.3567
Er337     Er     0.8567   0.9553   0.2064
Er338     Er     0.6433   0.9553   0.2936
Er339     Er     0.7936   0.9553   0.1433
Er340     Er     0.7064   0.9553   0.3567
V341     V     0.2189   0.0   0.7811
V342     V     0.2811   0.0   0.7189
Er343     Er     0.1433   0.0447   0.7936
Er344     Er     0.2064   0.0447   0.8567
Er345     Er     0.2936   0.0447   0.6433
Er346     Er     0.3567   0.0447   0.7064
Er347     Er     0.2064   0.9553   0.8567
Er348     Er     0.2936   0.9553   0.6433
Er349     Er     0.1433   0.9553   0.7936
Er350     Er     0.3567   0.9553   0.7064
Ti351     Ti     0.0977   0.1608   0.724
Ti352     Ti     0.1608   0.0977   0.724
V353     V     0.0   0.2189   0.7811
V354     V     0.0   0.2811   0.7189
Er355     Er     0.0447   0.2064   0.8567
Er356     Er     0.0447   0.1433   0.7936
Er357     Er     0.0447   0.2936   0.6433
Er358     Er     0.0447   0.3567   0.7064
Er359     Er     0.9553   0.2064   0.8567
Er360     Er     0.9553   0.2936   0.6433
Er361     Er     0.9553   0.1433   0.7936
Er362     Er     0.9553   0.3567   0.7064
V363     V     0.2189   0.7811   0.0
V364     V     0.2811   0.7189   0.0
Er365     Er     0.1433   0.7936   0.0447
Er366     Er     0.2064   0.8567   0.0447
Er367     Er     0.2936   0.6433   0.0447
Er368     Er     0.3567   0.7064   0.0447
Er369     Er     0.2064   0.8567   0.9553
Er370     Er     0.2936   0.6433   0.9553
Er371     Er     0.1433   0.7936   0.9553
Er372     Er     0.3567   0.7064   0.9553
Ti373     Ti     0.0977   0.724   0.1608
Ti374     Ti     0.1608   0.724   0.0977
V375     V     0.0   0.7811   0.2189
V376     V     0.0   0.7189   0.2811
Er377     Er     0.0447   0.8567   0.2064
Er378     Er     0.0447   0.7936   0.1433
Er379     Er     0.0447   0.6433   0.2936
Er380     Er     0.0447   0.7064   0.3567
Er381     Er     0.9553   0.8567   0.2064
Er382     Er     0.9553   0.6433   0.2936
Er383     Er     0.9553   0.7936   0.1433
Er384     Er     0.9553   0.7064   0.3567
Ti385     Ti     0.724   0.8392   0.0977
Ti386     Ti     0.724   0.9023   0.1608
Ti387     Ti     0.8392   0.724   0.0977
Ti388     Ti     0.9023   0.724   0.1608
V389     V     0.7811   0.7811   0.0
V390     V     0.7189   0.7189   0.0
Er391     Er     0.8567   0.7936   0.0447
Er392     Er     0.7936   0.8567   0.0447
Er393     Er     0.6433   0.7064   0.0447
Er394     Er     0.7064   0.6433   0.0447
Er395     Er     0.7936   0.8567   0.9553
Er396     Er     0.8567   0.7936   0.9553
Er397     Er     0.7064   0.6433   0.9553
Er398     Er     0.6433   0.7064   0.9553
Ti399     Ti     0.724   0.9023   0.8392
Ti400     Ti     0.724   0.8392   0.9023
Ti401     Ti     0.8392   0.0977   0.724
Ti402     Ti     0.9023   0.1608   0.724
Ti403     Ti     0.724   0.0977   0.8392
Ti404     Ti     0.724   0.1608   0.9023
V405     V     0.7811   0.0   0.7811
V406     V     0.7189   0.0   0.7189
Er407     Er     0.7936   0.0447   0.8567
Er408     Er     0.8567   0.0447   0.7936
Er409     Er     0.7064   0.0447   0.6433
Er410     Er     0.6433   0.0447   0.7064
Er411     Er     0.8567   0.9553   0.7936
Er412     Er     0.7936   0.9553   0.8567
Er413     Er     0.6433   0.9553   0.7064
Er414     Er     0.7064   0.9553   0.6433
Ti415     Ti     0.9023   0.8392   0.724
Ti416     Ti     0.8392   0.9023   0.724
Ti417     Ti     0.9023   0.724   0.8392
Ti418     Ti     0.8392   0.724   0.9023
Ti419     Ti     0.0977   0.8392   0.724
Ti420     Ti     0.1608   0.9023   0.724
Ti421     Ti     0.0977   0.724   0.8392
Ti422     Ti     0.1608   0.724   0.9023
V423     V     0.0   0.7811   0.7811
V424     V     0.0   0.7189   0.7189
Er425     Er     0.0447   0.7936   0.8567
Er426     Er     0.0447   0.8567   0.7936
Er427     Er     0.0447   0.6433   0.7064
Er428     Er     0.0447   0.7064   0.6433
Er429     Er     0.9553   0.7936   0.8567
Er430     Er     0.9553   0.8567   0.7936
Er431     Er     0.9553   0.7064   0.6433
Er432     Er     0.9553   0.6433   0.7064
loop_
_geom_bond_atom_site_label_1
_geom_bond_atom_site_label_2
_geom_bond_distance
_geom_bond_site_symmetry_2
_ccdc_geom_bond_type
Ti1     Ti2    10.016   .     S
Ti1     Er16    10.02   .     S
Ti1     Ti5    10.026   .     S
Ti2     Er79    10.02   .     S
Ti2     Ti73    10.026   .     S
Ti3     Ti4    10.016   .     S
Ti3     Er42    10.02   .     S
Ti3     Ti7    10.026   .     S
Ti4     Er80    10.02   .     S
Ti4     Ti86    10.026   .     S
Ti5     Ti6    10.016   .     S
Ti5     Er15    10.02   .     S
Ti6     Er68    10.02   .     S
Ti6     Ti74    10.026   .     S
Ti7     Ti8    10.016   .     S
Ti7     Er41    10.02   .     S
Ti8     Er91    10.02   .     S
Ti8     Ti85    10.026   .     S
Ti9     Ti10    10.016   .     S
Ti9     Er28    10.02   .     S
Ti9     Ti11    10.026   .     S
Ti10     Er67    10.02   .     S
Ti10     Ti62    10.026   .     S
Ti11     Ti12    10.016   .     S
Ti11     Er27    10.02   .     S
Ti12     Er92    10.02   .     S
Ti12     Ti61    10.026   .     S
V13     V14    9.886   .     S
V13     Er15    9.951   .     S
V13     Er17    9.951   .     S
V13     Er21    9.951   .     S
V13     Er19    9.951   .     S
V14     Er16    9.951   .     S
V14     Er18    9.951   .     S
V14     Er22    9.951   .     S
V14     Er20    9.951   .     S
Er15     Er17    10.018   .     S
Er15     Er19    10.026   .     S
Er16     Er18    10.018   .     S
Er16     Er20    10.026   .     S
Er17     Er21    10.026   .     S
Er17     Ti24    10.02   .     S
Er18     Er22    10.026   .     S
Er18     Ti36    10.02   .     S
Er19     Er21    10.018   .     S
Er19     Ti98    10.02   .     S
Er20     Er22    10.018   .     S
Er20     Ti272    10.02   .     S
Er21     Ti142    10.02   .     S
Er22     Ti138    10.02   .     S
Ti23     Ti24    10.016   .     S
Ti23     Er30    10.02   .     S
Ti23     Ti38    10.026   .     S
Ti24     Ti36    10.026   .     S
V25     V26    9.886   .     S
V25     Er27    9.951   .     S
V25     Er29    9.951   .     S
V25     Er33    9.951   .     S
V25     Er31    9.951   .     S
V26     Er28    9.951   .     S
V26     Er30    9.951   .     S
V26     Er34    9.951   .     S
V26     Er32    9.951   .     S
Er27     Er29    10.018   .     S
Er27     Er31    10.026   .     S
Er28     Er30    10.018   .     S
Er28     Er32    10.026   .     S
Er29     Er33    10.026   .     S
Er29     Ti38    10.02   .     S
Er30     Er34    10.026   .     S
Er31     Er33    10.018   .     S
Er31     Ti286    10.02   .     S
Er32     Er34    10.018   .     S
Er32     Ti280    10.02   .     S
Er33     Ti148    10.02   .     S
Er34     Ti144    10.02   .     S
Ti35     Ti36    10.016   .     S
Ti35     Er44    10.02   .     S
Ti35     Ti37    10.026   .     S
Ti37     Ti38    10.016   .     S
Ti37     Er43    10.02   .     S
V39     V40    9.886   .     S
V39     Er41    9.951   .     S
V39     Er43    9.951   .     S
V39     Er47    9.951   .     S
V39     Er45    9.951   .     S
V40     Er42    9.951   .     S
V40     Er44    9.951   .     S
V40     Er48    9.951   .     S
V40     Er46    9.951   .     S
Er41     Er43    10.018   .     S
Er41     Er45    10.026   .     S
Er42     Er44    10.018   .     S
Er42     Er46    10.026   .     S
Er43     Er47    10.026   .     S
Er44     Er48    10.026   .     S
Er45     Er47    10.018   .     S
Er45     Ti100    10.02   .     S
Er46     Er48    10.018   .     S
Er46     Ti274    10.02   .     S
Er47     Ti154    10.02   .     S
Er48     Ti134    10.02   .     S
Ti49     Ti50    10.016   .     S
Ti49     Er326    10.02   .     S
Ti49     Ti404    10.026   .     S
Ti50     Er174    10.02   .     S
Ti50     Ti300    10.026   .     S
Ti51     Ti52    10.016   .     S
Ti51     Er162    10.02   .     S
Ti51     Ti306    10.026   .     S
Ti52     Er370    10.02   .     S
Ti52     Ti422    10.026   .     S
Ti53     Ti54    10.016   .     S
Ti53     Er348    10.02   .     S
Ti53     Ti420    10.026   .     S
Ti54     Er184    10.02   .     S
Ti54     Ti304    10.026   .     S
Ti55     Ti56    10.016   .     S
Ti55     Er195    10.02   .     S
Ti55     Ti298    10.026   .     S
Ti56     Er338    10.02   .     S
Ti56     Ti386    10.026   .     S
Ti57     Ti58    10.016   .     S
Ti57     Er253    10.02   .     S
Ti57     Ti302    10.026   .     S
Ti58     Er360    10.02   .     S
Ti58     Ti402    10.026   .     S
Ti59     Ti60    10.016   .     S
Ti59     Er382    10.02   .     S
Ti59     Ti388    10.026   .     S
Ti60     Er265    10.02   .     S
Ti60     Ti296    10.026   .     S
Ti61     Ti62    10.016   .     S
Ti61     Er89    10.02   .     S
Ti62     Er66    10.02   .     S
V63     V64    9.886   .     S
V63     Er69    9.951   1_545     S
V63     Er70    9.951   1_545     S
V63     Er65    9.951   .     S
V63     Er66    9.951   .     S
V64     Er72    9.951   1_545     S
V64     Er71    9.951   1_545     S
V64     Er67    9.951   .     S
V64     Er68    9.951   .     S
Er65     Er66    10.018   .     S
Er65     Er70    10.026   1_545     S
Er65     Ti74    10.02   .     S
Er66     Er69    10.026   1_545     S
Er67     Er68    10.018   .     S
Er67     Er71    10.026   1_545     S
Er68     Er72    10.026   1_545     S
Er69     Er70    10.018   .     S
Er69     Er66    10.026   1_565     S
Er69     Ti318    10.02   .     S
Er69     V63    9.951   1_565     S
Er70     Er65    10.026   1_565     S
Er70     Ti312    10.02   .     S
Er70     V63    9.951   1_565     S
Er71     Er72    10.018   .     S
Er71     Er67    10.026   1_565     S
Er71     Ti124    10.02   .     S
Er71     V64    9.951   1_565     S
Er72     Er68    10.026   1_565     S
Er72     Ti118    10.02   .     S
Er72     V64    9.951   1_565     S
Ti73     Ti74    10.016   .     S
Ti73     Er78    10.02   .     S
V75     V76    9.886   .     S
V75     Er81    9.951   1_554     S
V75     Er82    9.951   1_554     S
V75     Er77    9.951   .     S
V75     Er78    9.951   .     S
V76     Er83    9.951   1_554     S
V76     Er84    9.951   1_554     S
V76     Er79    9.951   .     S
V76     Er80    9.951   .     S
Er77     Er78    10.018   .     S
Er77     Er82    10.026   1_554     S
Er77     Ti86    10.02   .     S
Er78     Er81    10.026   1_554     S
Er79     Er80    10.018   .     S
Er79     Er84    10.026   1_554     S
Er80     Er83    10.026   1_554     S
Er81     Er82    10.018   .     S
Er81     Er78    10.026   1_556     S
Er81     Ti310    10.02   .     S
Er81     V75    9.951   1_556     S
Er82     Er77    10.026   1_556     S
Er82     Ti314    10.02   .     S
Er82     V75    9.951   1_556     S
Er83     Er84    10.018   .     S
Er83     Er80    10.026   1_556     S
Er83     Ti110    10.02   .     S
Er83     V76    9.951   1_556     S
Er84     Er79    10.026   1_556     S
Er84     Ti112    10.02   .     S
Er84     V76    9.951   1_556     S
Ti85     Ti86    10.016   .     S
Ti85     Er90    10.02   .     S
V87     V88    9.886   .     S
V87     Er93    9.951   1_455     S
V87     Er94    9.951   1_455     S
V87     Er89    9.951   .     S
V87     Er90    9.951   .     S
V88     Er95    9.951   1_455     S
V88     Er96    9.951   1_455     S
V88     Er91    9.951   .     S
V88     Er92    9.951   .     S
Er89     Er90    10.018   .     S
Er89     Er94    10.026   1_455     S
Er90     Er93    10.026   1_455     S
Er91     Er92    10.018   .     S
Er91     Er96    10.026   1_455     S
Er92     Er95    10.026   1_455     S
Er93     Er94    10.018   .     S
Er93     Er90    10.026   1_655     S
Er93     Ti308    10.02   .     S
Er93     V87    9.951   1_655     S
Er94     Er89    10.026   1_655     S
Er94     Ti316    10.02   .     S
Er94     V87    9.951   1_655     S
Er95     Er96    10.018   .     S
Er95     Er92    10.026   1_655     S
Er95     Ti130    10.02   .     S
Er95     V88    9.951   1_655     S
Er96     Er91    10.026   1_655     S
Er96     Ti120    10.02   .     S
Er96     V88    9.951   1_655     S
Ti97     Ti98    10.016   .     S
Ti97     Er335    10.02   .     S
Ti97     Ti329    10.026   .     S
Ti98     Ti272    10.026   .     S
Ti99     Ti100    10.016   .     S
Ti99     Er379    10.02   .     S
Ti99     Ti373    10.026   .     S
Ti100     Ti274    10.026   .     S
Ti101     Ti102    10.016   .     S
Ti101     Er196    10.02   .     S
Ti101     Ti216    10.026   .     S
Ti102     Er266    10.02   .     S
Ti102     Ti218    10.026   .     S
Ti103     Ti104    10.016   .     S
Ti103     Er254    10.02   .     S
Ti103     Ti236    10.026   .     S
Ti104     Er173    10.02   .     S
Ti104     Ti234    10.026   .     S
Ti105     Ti106    10.016   .     S
Ti105     Er161    10.02   .     S
Ti105     Ti202    10.026   .     S
Ti106     Er183    10.02   .     S
Ti106     Ti204    10.026   .     S
Ti107     Ti108    10.016   .     S
Ti107     Er263    10.02   .     S
Ti107     Ti119    10.026   .     S
Ti108     Er324    10.02   .     S
Ti108     Ti307    10.026   .     S
Ti109     Ti110    10.016   .     S
Ti109     Er158    10.02   .     S
Ti109     Ti121    10.026   .     S
Ti110     Ti314    10.026   .     S
Ti111     Ti112    10.016   .     S
Ti111     Er170    10.02   .     S
Ti111     Ti115    10.026   .     S
Ti112     Ti310    10.026   .     S
Ti113     Ti114    10.016   .     S
Ti113     Er193    10.02   .     S
Ti113     Ti117    10.026   .     S
Ti114     Er368    10.02   .     S
Ti114     Ti311    10.026   .     S
Ti115     Ti116    10.016   .     S
Ti115     Er171    10.02   .     S
Ti116     Er346    10.02   .     S
Ti116     Ti309    10.026   .     S
Ti117     Ti118    10.016   .     S
Ti117     Er191    10.02   .     S
Ti118     Ti312    10.026   .     S
Ti119     Ti120    10.016   .     S
Ti119     Er261    10.02   .     S
Ti120     Ti308    10.026   .     S
Ti121     Ti122    10.016   .     S
Ti121     Er159    10.02   .     S
Ti122     Er358    10.02   .     S
Ti122     Ti313    10.026   .     S
Ti123     Ti124    10.016   .     S
Ti123     Er180    10.02   .     S
Ti123     Ti127    10.026   .     S
Ti124     Ti318    10.026   .     S
Ti125     Ti126    10.016   .     S
Ti125     Er251    10.02   .     S
Ti125     Ti129    10.026   .     S
Ti126     Er336    10.02   .     S
Ti126     Ti315    10.026   .     S
Ti127     Ti128    10.016   .     S
Ti127     Er181    10.02   .     S
Ti128     Er380    10.02   .     S
Ti128     Ti317    10.026   .     S
Ti129     Ti130    10.016   .     S
Ti129     Er249    10.02   .     S
Ti130     Ti316    10.026   .     S
Ti131     Ti132    10.016   .     S
Ti131     Er210    10.02   .     S
Ti131     Ti145    10.026   .     S
Ti132     Er372    10.02   .     S
Ti132     Ti292    10.026   .     S
Ti133     Ti134    10.016   .     S
Ti133     Er192    10.02   .     S
Ti133     Ti187    10.026   .     S
Ti134     Ti154    10.026   .     S
Ti135     Ti136    10.016   .     S
Ti135     Er241    10.02   .     S
Ti135     Ti149    10.026   .     S
Ti136     Er328    10.02   .     S
Ti136     Ti289    10.026   .     S
Ti137     Ti138    10.016   .     S
Ti137     Er262    10.02   .     S
Ti137     Ti257    10.026   .     S
Ti138     Ti142    10.026   .     S
Ti139     Ti140    10.016   .     S
Ti139     Er224    10.02   .     S
Ti139     Ti151    10.026   .     S
Ti140     Er340    10.02   .     S
Ti140     Ti294    10.026   .     S
Ti141     Ti142    10.016   .     S
Ti141     Er250    10.02   .     S
Ti141     Ti258    10.026   .     S
Ti143     Ti144    10.016   .     S
Ti143     Er169    10.02   .     S
Ti143     Ti165    10.026   .     S
Ti144     Ti148    10.026   .     S
Ti145     Ti146    10.016   .     S
Ti145     Er207    10.02   .     S
Ti146     Er350    10.02   .     S
Ti146     Ti291    10.026   .     S
Ti147     Ti148    10.016   .     S
Ti147     Er157    10.02   .     S
Ti147     Ti166    10.026   .     S
Ti149     Ti150    10.016   .     S
Ti149     Er240    10.02   .     S
Ti150     Er362    10.02   .     S
Ti150     Ti290    10.026   .     S
Ti151     Ti152    10.016   .     S
Ti151     Er221    10.02   .     S
Ti152     Er384    10.02   .     S
Ti152     Ti293    10.026   .     S
Ti153     Ti154    10.016   .     S
Ti153     Er179    10.02   .     S
Ti153     Ti188    10.026   .     S
V155     V156    9.886   .     S
V155     Er162    9.951   .     S
V155     Er158    9.951   .     S
V155     Er160    9.951   .     S
V155     Er164    9.951   .     S
V156     Er157    9.951   .     S
V156     Er159    9.951   .     S
V156     Er163    9.951   .     S
V156     Er161    9.951   .     S
Er157     Er159    10.018   .     S
Er157     Er161    10.026   .     S
Er158     Er160    10.018   .     S
Er158     Er162    10.026   .     S
Er159     Er163    10.026   .     S
Er160     Er164    10.026   .     S
Er160     Ti166    10.02   .     S
Er161     Er163    10.018   .     S
Er162     Er164    10.018   .     S
Er163     Ti306    10.02   .     S
Er164     Ti202    10.02   .     S
Ti165     Ti166    10.016   .     S
Ti165     Er172    10.02   .     S
V167     V168    9.886   .     S
V167     Er174    9.951   .     S
V167     Er176    9.951   .     S
V167     Er170    9.951   .     S
V167     Er172    9.951   .     S
V168     Er169    9.951   .     S
V168     Er171    9.951   .     S
V168     Er175    9.951   .     S
V168     Er173    9.951   .     S
Er169     Er171    10.018   .     S
Er169     Er173    10.026   .     S
Er170     Er172    10.018   .     S
Er170     Er174    10.026   .     S
Er171     Er175    10.026   .     S
Er172     Er176    10.026   .     S
Er173     Er175    10.018   .     S
Er174     Er176    10.018   .     S
Er175     Ti300    10.02   .     S
Er176     Ti234    10.02   .     S
V177     V178    9.886   .     S
V177     Er184    9.951   .     S
V177     Er180    9.951   .     S
V177     Er182    9.951   .     S
V177     Er186    9.951   .     S
V178     Er179    9.951   .     S
V178     Er181    9.951   .     S
V178     Er185    9.951   .     S
V178     Er183    9.951   .     S
Er179     Er181    10.018   .     S
Er179     Er183    10.026   .     S
Er180     Er182    10.018   .     S
Er180     Er184    10.026   .     S
Er181     Er185    10.026   .     S
Er182     Er186    10.026   .     S
Er182     Ti188    10.02   .     S
Er183     Er185    10.018   .     S
Er184     Er186    10.018   .     S
Er185     Ti304    10.02   .     S
Er186     Ti204    10.02   .     S
Ti187     Ti188    10.016   .     S
Ti187     Er194    10.02   .     S
V189     V190    9.886   .     S
V189     Er195    9.951   .     S
V189     Er198    9.951   .     S
V189     Er191    9.951   .     S
V189     Er194    9.951   .     S
V190     Er192    9.951   .     S
V190     Er193    9.951   .     S
V190     Er197    9.951   .     S
V190     Er196    9.951   .     S
Er191     Er194    10.018   .     S
Er191     Er195    10.026   .     S
Er192     Er193    10.018   .     S
Er192     Er196    10.026   .     S
Er193     Er197    10.026   .     S
Er194     Er198    10.026   .     S
Er195     Er198    10.018   .     S
Er196     Er197    10.018   .     S
Er197     Ti298    10.02   .     S
Er198     Ti216    10.02   .     S
Ti199     Ti200    10.016   .     S
Ti199     Er228    10.02   .     S
Ti199     Ti232    10.026   .     S
Ti200     Er211    10.02   .     S
Ti200     Ti230    10.026   .     S
Ti201     Ti202    10.016   .     S
Ti201     Er209    10.02   .     S
Ti201     Ti203    10.026   .     S
Ti203     Ti204    10.016   .     S
Ti203     Er208    10.02   .     S
V205     V206    9.886   .     S
V205     Er207    9.951   .     S
V205     Er208    9.951   .     S
V205     Er211    9.951   .     S
V205     Er212    9.951   .     S
V206     Er209    9.951   .     S
V206     Er210    9.951   .     S
V206     Er213    9.951   .     S
V206     Er214    9.951   .     S
Er207     Er208    10.018   .     S
Er207     Er212    10.026   .     S
Er208     Er211    10.026   .     S
Er209     Er210    10.018   .     S
Er209     Er214    10.026   .     S
Er210     Er213    10.026   .     S
Er211     Er212    10.018   .     S
Er212     Ti282    10.02   .     S
Er213     Er214    10.018   .     S
Er213     Ti270    10.02   .     S
Er214     Ti230    10.02   .     S
Ti215     Ti216    10.016   .     S
Ti215     Er223    10.02   .     S
Ti215     Ti217    10.026   .     S
Ti217     Ti218    10.016   .     S
Ti217     Er222    10.02   .     S
Ti218     Er268    10.02   .     S
V219     V220    9.886   .     S
V219     Er221    9.951   .     S
V219     Er222    9.951   .     S
V219     Er225    9.951   .     S
V219     Er226    9.951   .     S
V220     Er223    9.951   .     S
V220     Er224    9.951   .     S
V220     Er227    9.951   .     S
V220     Er228    9.951   .     S
Er221     Er222    10.018   .     S
Er221     Er226    10.026   .     S
Er222     Er225    10.026   .     S
Er223     Er224    10.018   .     S
Er223     Er228    10.026   .     S
Er224     Er227    10.026   .     S
Er225     Er226    10.018   .     S
Er225     Ti232    10.02   .     S
Er226     Ti288    10.02   .     S
Er227     Er228    10.018   .     S
Er227     Ti278    10.02   .     S
Ti229     Ti230    10.016   .     S
Ti229     Er245    10.02   .     S
Ti229     Ti231    10.026   .     S
Ti231     Ti232    10.016   .     S
Ti231     Er244    10.02   .     S
Ti233     Ti234    10.016   .     S
Ti233     Er242    10.02   .     S
Ti233     Ti235    10.026   .     S
Ti235     Ti236    10.016   .     S
Ti235     Er239    10.02   .     S
Ti236     Er256    10.02   .     S
V237     V238    9.886   .     S
V237     Er239    9.951   .     S
V237     Er240    9.951   .     S
V237     Er243    9.951   .     S
V237     Er244    9.951   .     S
V238     Er241    9.951   .     S
V238     Er242    9.951   .     S
V238     Er245    9.951   .     S
V238     Er246    9.951   .     S
Er239     Er240    10.018   .     S
Er239     Er244    10.026   .     S
Er240     Er243    10.026   .     S
Er241     Er242    10.018   .     S
Er241     Er246    10.026   .     S
Er242     Er245    10.026   .     S
Er243     Er244    10.018   .     S
Er243     Ti284    10.02   .     S
Er245     Er246    10.018   .     S
Er246     Ti276    10.02   .     S
V247     V248    9.886   .     S
V247     Er253    9.951   .     S
V247     Er249    9.951   .     S
V247     Er252    9.951   .     S
V247     Er256    9.951   .     S
V248     Er250    9.951   .     S
V248     Er251    9.951   .     S
V248     Er255    9.951   .     S
V248     Er254    9.951   .     S
Er249     Er252    10.018   .     S
Er249     Er253    10.026   .     S
Er250     Er251    10.018   .     S
Er250     Er254    10.026   .     S
Er251     Er255    10.026   .     S
Er252     Er256    10.026   .     S
Er252     Ti258    10.02   .     S
Er253     Er256    10.018   .     S
Er254     Er255    10.018   .     S
Er255     Ti302    10.02   .     S
Ti257     Ti258    10.016   .     S
Ti257     Er264    10.02   .     S
V259     V260    9.886   .     S
V259     Er265    9.951   .     S
V259     Er268    9.951   .     S
V259     Er261    9.951   .     S
V259     Er264    9.951   .     S
V260     Er262    9.951   .     S
V260     Er263    9.951   .     S
V260     Er267    9.951   .     S
V260     Er266    9.951   .     S
Er261     Er264    10.018   .     S
Er261     Er265    10.026   .     S
Er262     Er263    10.018   .     S
Er262     Er266    10.026   .     S
Er263     Er267    10.026   .     S
Er264     Er268    10.026   .     S
Er265     Er268    10.018   .     S
Er266     Er267    10.018   .     S
Er267     Ti296    10.02   .     S
Ti269     Ti270    10.016   .     S
Ti269     Er398    10.02   .     S
Ti269     Ti400    10.026   .     S
Ti270     Ti282    10.026   .     S
Ti271     Ti272    10.016   .     S
Ti271     Er323    10.02   .     S
Ti271     Ti330    10.026   .     S
Ti273     Ti274    10.016   .     S
Ti273     Er367    10.02   .     S
Ti273     Ti374    10.026   .     S
Ti275     Ti276    10.016   .     S
Ti275     Er397    10.02   .     S
Ti275     Ti418    10.026   .     S
Ti276     Ti284    10.026   .     S
Ti277     Ti278    10.016   .     S
Ti277     Er414    10.02   .     S
Ti277     Ti416    10.026   .     S
Ti278     Ti288    10.026   .     S
Ti279     Ti280    10.016   .     S
Ti279     Er345    10.02   .     S
Ti279     Ti352    10.026   .     S
Ti280     Ti286    10.026   .     S
Ti281     Ti282    10.016   .     S
Ti281     Er413    10.02   .     S
Ti281     Ti399    10.026   .     S
Ti283     Ti284    10.016   .     S
Ti283     Er432    10.02   .     S
Ti283     Ti417    10.026   .     S
Ti285     Ti286    10.016   .     S
Ti285     Er357    10.02   .     S
Ti285     Ti351    10.026   .     S
Ti287     Ti288    10.016   .     S
Ti287     Er431    10.02   .     S
Ti287     Ti415    10.026   .     S
Ti289     Ti290    10.016   .     S
Ti289     Er325    10.02   .     S
Ti290     Er359    10.02   .     S
Ti291     Ti292    10.016   .     S
Ti291     Er347    10.02   .     S
Ti292     Er369    10.02   .     S
Ti293     Ti294    10.016   .     S
Ti293     Er381    10.02   .     S
Ti294     Er337    10.02   .     S
Ti295     Ti296    10.016   .     S
Ti295     Er394    10.02   .     S
Ti295     Ti387    10.026   .     S
Ti297     Ti298    10.016   .     S
Ti297     Er393    10.02   .     S
Ti297     Ti385    10.026   .     S
Ti299     Ti300    10.016   .     S
Ti299     Er410    10.02   .     S
Ti299     Ti403    10.026   .     S
Ti301     Ti302    10.016   .     S
Ti301     Er409    10.02   .     S
Ti301     Ti401    10.026   .     S
Ti303     Ti304    10.016   .     S
Ti303     Er428    10.02   .     S
Ti303     Ti419    10.026   .     S
Ti305     Ti306    10.016   .     S
Ti305     Er427    10.02   .     S
Ti305     Ti421    10.026   .     S
Ti307     Ti308    10.016   .     S
Ti307     Er322    10.02   .     S
Ti309     Ti310    10.016   .     S
Ti309     Er344    10.02   .     S
Ti311     Ti312    10.016   .     S
Ti311     Er366    10.02   .     S
Ti313     Ti314    10.016   .     S
Ti313     Er355    10.02   .     S
Ti315     Ti316    10.016   .     S
Ti315     Er333    10.02   .     S
Ti317     Ti318    10.016   .     S
Ti317     Er377    10.02   .     S
V319     V320    9.886   .     S
V319     Er322    9.951   .     S
V319     Er327    9.951   1_554     S
V319     Er321    9.951   .     S
V319     Er325    9.951   1_554     S
V320     Er323    9.951   .     S
V320     Er328    9.951   1_554     S
V320     Er324    9.951   .     S
V320     Er326    9.951   1_554     S
Er321     Er322    10.018   .     S
Er321     Er327    10.026   1_554     S
Er321     Ti330    10.02   .     S
Er322     Er325    10.026   1_554     S
Er323     Er324    10.018   .     S
Er323     Er326    10.026   1_554     S
Er324     Er328    10.026   1_554     S
Er325     Er327    10.018   .     S
Er325     Er322    10.026   1_556     S
Er325     V319    9.951   1_556     S
Er326     Er328    10.018   .     S
Er326     Er323    10.026   1_556     S
Er326     V320    9.951   1_556     S
Er327     Er321    10.026   1_556     S
Er327     Ti404    10.02   .     S
Er327     V319    9.951   1_556     S
Er328     Er324    10.026   1_556     S
Er328     V320    9.951   1_556     S
Ti329     Ti330    10.016   .     S
Ti329     Er334    10.02   .     S
V331     V332    9.886   .     S
V331     Er333    9.951   .     S
V331     Er339    9.951   1_545     S
V331     Er334    9.951   .     S
V331     Er337    9.951   1_545     S
V332     Er335    9.951   .     S
V332     Er340    9.951   1_545     S
V332     Er336    9.951   .     S
V332     Er338    9.951   1_545     S
Er333     Er334    10.018   .     S
Er333     Er337    10.026   1_545     S
Er334     Er339    10.026   1_545     S
Er335     Er336    10.018   .     S
Er335     Er338    10.026   1_545     S
Er336     Er340    10.026   1_545     S
Er337     Er339    10.018   .     S
Er337     Er333    10.026   1_565     S
Er337     V331    9.951   1_565     S
Er338     Er340    10.018   .     S
Er338     Er335    10.026   1_565     S
Er338     V332    9.951   1_565     S
Er339     Er334    10.026   1_565     S
Er339     Ti386    10.02   .     S
Er339     V331    9.951   1_565     S
Er340     Er336    10.026   1_565     S
Er340     V332    9.951   1_565     S
V341     V342    9.886   .     S
V341     Er344    9.951   .     S
V341     Er349    9.951   1_545     S
V341     Er343    9.951   .     S
V341     Er347    9.951   1_545     S
V342     Er345    9.951   .     S
V342     Er350    9.951   1_545     S
V342     Er346    9.951   .     S
V342     Er348    9.951   1_545     S
Er343     Er344    10.018   .     S
Er343     Er349    10.026   1_545     S
Er343     Ti352    10.02   .     S
Er344     Er347    10.026   1_545     S
Er345     Er346    10.018   .     S
Er345     Er348    10.026   1_545     S
Er346     Er350    10.026   1_545     S
Er347     Er349    10.018   .     S
Er347     Er344    10.026   1_565     S
Er347     V341    9.951   1_565     S
Er348     Er350    10.018   .     S
Er348     Er345    10.026   1_565     S
Er348     V342    9.951   1_565     S
Er349     Er343    10.026   1_565     S
Er349     Ti420    10.02   .     S
Er349     V341    9.951   1_565     S
Er350     Er346    10.026   1_565     S
Er350     V342    9.951   1_565     S
Ti351     Ti352    10.016   .     S
Ti351     Er356    10.02   .     S
V353     V354    9.886   .     S
V353     Er355    9.951   .     S
V353     Er361    9.951   1_455     S
V353     Er356    9.951   .     S
V353     Er359    9.951   1_455     S
V354     Er357    9.951   .     S
V354     Er362    9.951   1_455     S
V354     Er358    9.951   .     S
V354     Er360    9.951   1_455     S
Er355     Er356    10.018   .     S
Er355     Er359    10.026   1_455     S
Er356     Er361    10.026   1_455     S
Er357     Er358    10.018   .     S
Er357     Er360    10.026   1_455     S
Er358     Er362    10.026   1_455     S
Er359     Er361    10.018   .     S
Er359     Er355    10.026   1_655     S
Er359     V353    9.951   1_655     S
Er360     Er362    10.018   .     S
Er360     Er357    10.026   1_655     S
Er360     V354    9.951   1_655     S
Er361     Er356    10.026   1_655     S
Er361     Ti402    10.02   .     S
Er361     V353    9.951   1_655     S
Er362     Er358    10.026   1_655     S
Er362     V354    9.951   1_655     S
V363     V364    9.886   .     S
V363     Er366    9.951   .     S
V363     Er371    9.951   1_554     S
V363     Er365    9.951   .     S
V363     Er369    9.951   1_554     S
V364     Er367    9.951   .     S
V364     Er372    9.951   1_554     S
V364     Er368    9.951   .     S
V364     Er370    9.951   1_554     S
Er365     Er366    10.018   .     S
Er365     Er371    10.026   1_554     S
Er365     Ti374    10.02   .     S
Er366     Er369    10.026   1_554     S
Er367     Er368    10.018   .     S
Er367     Er370    10.026   1_554     S
Er368     Er372    10.026   1_554     S
Er369     Er371    10.018   .     S
Er369     Er366    10.026   1_556     S
Er369     V363    9.951   1_556     S
Er370     Er372    10.018   .     S
Er370     Er367    10.026   1_556     S
Er370     V364    9.951   1_556     S
Er371     Er365    10.026   1_556     S
Er371     Ti422    10.02   .     S
Er371     V363    9.951   1_556     S
Er372     Er368    10.026   1_556     S
Er372     V364    9.951   1_556     S
Ti373     Ti374    10.016   .     S
Ti373     Er378    10.02   .     S
V375     V376    9.886   .     S
V375     Er377    9.951   .     S
V375     Er383    9.951   1_455     S
V375     Er378    9.951   .     S
V375     Er381    9.951   1_455     S
V376     Er379    9.951   .     S
V376     Er384    9.951   1_455     S
V376     Er380    9.951   .     S
V376     Er382    9.951   1_455     S
Er377     Er378    10.018   .     S
Er377     Er381    10.026   1_455     S
Er378     Er383    10.026   1_455     S
Er379     Er380    10.018   .     S
Er379     Er382    10.026   1_455     S
Er380     Er384    10.026   1_455     S
Er381     Er383    10.018   .     S
Er381     Er377    10.026   1_655     S
Er381     V375    9.951   1_655     S
Er382     Er384    10.018   .     S
Er382     Er379    10.026   1_655     S
Er382     V376    9.951   1_655     S
Er383     Er378    10.026   1_655     S
Er383     Ti388    10.02   .     S
Er383     V375    9.951   1_655     S
Er384     Er380    10.026   1_655     S
Er384     V376    9.951   1_655     S
Ti385     Ti386    10.016   .     S
Ti385     Er392    10.02   .     S
Ti387     Ti388    10.016   .     S
Ti387     Er391    10.02   .     S
V389     V390    9.886   .     S
V389     Er395    9.951   1_554     S
V389     Er396    9.951   1_554     S
V389     Er391    9.951   .     S
V389     Er392    9.951   .     S
V390     Er397    9.951   1_554     S
V390     Er398    9.951   1_554     S
V390     Er393    9.951   .     S
V390     Er394    9.951   .     S
Er391     Er392    10.018   .     S
Er391     Er396    10.026   1_554     S
Er392     Er395    10.026   1_554     S
Er393     Er394    10.018   .     S
Er393     Er398    10.026   1_554     S
Er394     Er397    10.026   1_554     S
Er395     Er396    10.018   .     S
Er395     Er392    10.026   1_556     S
Er395     Ti400    10.02   .     S
Er395     V389    9.951   1_556     S
Er396     Er391    10.026   1_556     S
Er396     Ti418    10.02   .     S
Er396     V389    9.951   1_556     S
Er397     Er398    10.018   .     S
Er397     Er394    10.026   1_556     S
Er397     V390    9.951   1_556     S
Er398     Er393    10.026   1_556     S
Er398     V390    9.951   1_556     S
Ti399     Ti400    10.016   .     S
Ti399     Er412    10.02   .     S
Ti401     Ti402    10.016   .     S
Ti401     Er408    10.02   .     S
Ti403     Ti404    10.016   .     S
Ti403     Er407    10.02   .     S
V405     V406    9.886   .     S
V405     Er411    9.951   1_545     S
V405     Er412    9.951   1_545     S
V405     Er407    9.951   .     S
V405     Er408    9.951   .     S
V406     Er413    9.951   1_545     S
V406     Er414    9.951   1_545     S
V406     Er409    9.951   .     S
V406     Er410    9.951   .     S
Er407     Er408    10.018   .     S
Er407     Er412    10.026   1_545     S
Er408     Er411    10.026   1_545     S
Er409     Er410    10.018   .     S
Er409     Er414    10.026   1_545     S
Er410     Er413    10.026   1_545     S
Er411     Er412    10.018   .     S
Er411     Er408    10.026   1_565     S
Er411     Ti416    10.02   .     S
Er411     V405    9.951   1_565     S
Er412     Er407    10.026   1_565     S
Er412     V405    9.951   1_565     S
Er413     Er414    10.018   .     S
Er413     Er410    10.026   1_565     S
Er413     V406    9.951   1_565     S
Er414     Er409    10.026   1_565     S
Er414     V406    9.951   1_565     S
Ti415     Ti416    10.016   .     S
Ti415     Er430    10.02   .     S
Ti417     Ti418    10.016   .     S
Ti417     Er429    10.02   .     S
Ti419     Ti420    10.016   .     S
Ti419     Er426    10.02   .     S
Ti421     Ti422    10.016   .     S
Ti421     Er425    10.02   .     S
V423     V424    9.886   .     S
V423     Er429    9.951   1_455     S
V423     Er430    9.951   1_455     S
V423     Er425    9.951   .     S
V423     Er426    9.951   .     S
V424     Er431    9.951   1_455     S
V424     Er432    9.951   1_455     S
V424     Er427    9.951   .     S
V424     Er428    9.951   .     S
Er425     Er426    10.018   .     S
Er425     Er429    10.026   1_455     S
Er426     Er430    10.026   1_455     S
Er427     Er428    10.018   .     S
Er427     Er432    10.026   1_455     S
Er428     Er431    10.026   1_455     S
Er429     Er430    10.018   .     S
Er429     Er425    10.026   1_655     S
Er429     V423    9.951   1_655     S
Er430     Er426    10.026   1_655     S
Er430     V423    9.951   1_655     S
Er431     Er432    10.018   .     S
Er431     Er428    10.026   1_655     S
Er431     V424    9.951   1_655     S
Er432     Er427    10.026   1_655     S
Er432     V424    9.951   1_655     S
