data_gdma
_audit_creation_date              2020-02-02
_audit_creation_method            'Pymatgen'
_symmetry_space_group_name_H-M    'P1'
_symmetry_Int_Tables_number       1
loop_
_symmetry_equiv_pos_as_xyz
  x,y,z
_cell_length_a                    153.1157
_cell_length_b                    153.1157
_cell_length_c                    153.1157
_cell_angle_alpha                 90.0
_cell_angle_beta                 90.0
_cell_angle_gamma                 90.0
loop_
_atom_site_label
_atom_site_type_symbol
_atom_site_fract_x
_atom_site_fract_y
_atom_site_fract_z
S1     S     0.7731   0.7731   0.0
S2     S     0.7269   0.7269   0.0
S3     S     0.5   0.7269   0.7731
S4     S     0.5   0.7731   0.7269
S5     S     0.7731   0.0   0.7731
S6     S     0.7269   0.0   0.7269
S7     S     0.7269   0.7731   0.5
S8     S     0.7731   0.7269   0.5
S9     S     0.0   0.7731   0.7731
S10     S     0.0   0.7269   0.7269
S11     S     0.7269   0.5   0.7731
S12     S     0.7731   0.5   0.7269
S13     S     0.7731   0.2269   0.0
S14     S     0.7269   0.2731   0.0
S15     S     0.2269   0.7731   0.0
S16     S     0.2731   0.7269   0.0
S17     S     0.7731   0.2731   0.5
S18     S     0.7269   0.2269   0.5
S19     S     0.5   0.2731   0.2269
S20     S     0.5   0.2269   0.2731
S21     S     0.2731   0.2269   0.5
S22     S     0.2269   0.2731   0.5
S23     S     0.2731   0.7731   0.5
S24     S     0.2269   0.7269   0.5
S25     S     0.2731   0.5   0.2269
S26     S     0.2269   0.5   0.2731
S27     S     0.2731   0.2731   0.0
S28     S     0.2269   0.2269   0.0
S29     S     0.0   0.2731   0.2731
S30     S     0.0   0.2269   0.2269
S31     S     0.2731   0.0   0.2731
S32     S     0.2269   0.0   0.2269
S33     S     0.5   0.7731   0.2731
S34     S     0.5   0.7269   0.2269
S35     S     0.7731   0.5   0.2731
S36     S     0.7269   0.5   0.2269
S37     S     0.2269   0.0   0.7731
S38     S     0.2731   0.0   0.7269
S39     S     0.7731   0.0   0.2269
S40     S     0.7269   0.0   0.2731
S41     S     0.5   0.2731   0.7731
S42     S     0.5   0.2269   0.7269
S43     S     0.0   0.7731   0.2269
S44     S     0.0   0.7269   0.2731
S45     S     0.2731   0.5   0.7731
S46     S     0.2269   0.5   0.7269
S47     S     0.0   0.2269   0.7731
S48     S     0.0   0.2731   0.7269
Ce49     Ce     0.6712   0.5327   0.2174
Ti50     Ti     0.6242   0.5781   0.2158
Ce51     Ce     0.5327   0.6712   0.2174
Ti52     Ti     0.5781   0.6242   0.2158
Ce53     Ce     0.6712   0.7827   0.4673
Ti54     Ti     0.6242   0.7842   0.4219
Ce55     Ce     0.5327   0.7827   0.3288
Ti56     Ti     0.5781   0.7842   0.3758
Ce57     Ce     0.7827   0.6712   0.4673
Ti58     Ti     0.7842   0.6242   0.4219
Ce59     Ce     0.7827   0.5327   0.3288
Ti60     Ti     0.7842   0.5781   0.3758
Er61     Er     0.6377   0.6377   0.2389
Er62     Er     0.6377   0.7611   0.3623
Er63     Er     0.7611   0.6377   0.3623
V64     V     0.6536   0.6998   0.3464
V65     V     0.6998   0.6536   0.3464
V66     V     0.6536   0.6536   0.3002
Ti67     Ti     0.7842   0.4219   0.3758
Ce68     Ce     0.7827   0.4673   0.3288
Ti69     Ti     0.7842   0.3758   0.4219
Ce70     Ce     0.7827   0.3288   0.4673
Ce71     Ce     0.6712   0.4673   0.2174
Ti72     Ti     0.6242   0.4219   0.2158
Ce73     Ce     0.5327   0.3288   0.2174
Ti74     Ti     0.5781   0.3758   0.2158
Ce75     Ce     0.6712   0.2174   0.4673
Ti76     Ti     0.6242   0.2158   0.4219
Ce77     Ce     0.5327   0.2174   0.3288
Ti78     Ti     0.5781   0.2158   0.3758
Er79     Er     0.6377   0.3623   0.2389
Er80     Er     0.6377   0.2389   0.3623
V81     V     0.6998   0.3464   0.3464
V82     V     0.6536   0.3002   0.3464
V83     V     0.6536   0.3464   0.3002
Er84     Er     0.7611   0.3623   0.3623
Ce85     Ce     0.5327   0.6712   0.7827
Ti86     Ti     0.5781   0.6242   0.7842
Ce87     Ce     0.6712   0.5327   0.7827
Ti88     Ti     0.6242   0.5781   0.7842
Ce89     Ce     0.6712   0.7827   0.5327
Ti90     Ti     0.6242   0.7842   0.5781
Ce91     Ce     0.5327   0.7827   0.6712
Ti92     Ti     0.5781   0.7842   0.6242
Ce93     Ce     0.7827   0.6712   0.5327
Ti94     Ti     0.7842   0.6242   0.5781
Ce95     Ce     0.7827   0.5327   0.6712
Ti96     Ti     0.7842   0.5781   0.6242
Er97     Er     0.6377   0.6377   0.7611
Er98     Er     0.6377   0.7611   0.6377
Er99     Er     0.7611   0.6377   0.6377
V100     V     0.6998   0.6536   0.6536
V101     V     0.6536   0.6998   0.6536
V102     V     0.6536   0.6536   0.6998
Ce103     Ce     0.6712   0.2174   0.5327
Ti104     Ti     0.6242   0.2158   0.5781
Ce105     Ce     0.5327   0.2174   0.6712
Ti106     Ti     0.5781   0.2158   0.6242
Ce107     Ce     0.6712   0.4673   0.7827
Ti108     Ti     0.6242   0.4219   0.7842
Ce109     Ce     0.5327   0.3288   0.7827
Ti110     Ti     0.5781   0.3758   0.7842
Ce111     Ce     0.7827   0.4673   0.6712
Ti112     Ti     0.7842   0.4219   0.6242
Ce113     Ce     0.7827   0.3288   0.5327
Ti114     Ti     0.7842   0.3758   0.5781
Er115     Er     0.6377   0.2389   0.6377
Er116     Er     0.6377   0.3623   0.7611
Er117     Er     0.7611   0.3623   0.6377
V118     V     0.6536   0.3464   0.6998
V119     V     0.6998   0.3464   0.6536
V120     V     0.6536   0.3002   0.6536
Ti121     Ti     0.4219   0.3758   0.7842
Ce122     Ce     0.4673   0.3288   0.7827
Ti123     Ti     0.3758   0.4219   0.7842
Ce124     Ce     0.3288   0.4673   0.7827
Ce125     Ce     0.4673   0.2174   0.6712
Ti126     Ti     0.4219   0.2158   0.6242
Ce127     Ce     0.3288   0.2174   0.5327
Ti128     Ti     0.3758   0.2158   0.5781
Ce129     Ce     0.2174   0.4673   0.6712
Ti130     Ti     0.2158   0.4219   0.6242
Ce131     Ce     0.2174   0.3288   0.5327
Ti132     Ti     0.2158   0.3758   0.5781
Er133     Er     0.3623   0.2389   0.6377
Er134     Er     0.2389   0.3623   0.6377
Er135     Er     0.3623   0.3623   0.7611
V136     V     0.3464   0.3464   0.6998
V137     V     0.3002   0.3464   0.6536
V138     V     0.3464   0.3002   0.6536
Ce139     Ce     0.2174   0.5327   0.6712
Ti140     Ti     0.2158   0.5781   0.6242
Ce141     Ce     0.2174   0.6712   0.5327
Ti142     Ti     0.2158   0.6242   0.5781
Ce143     Ce     0.4673   0.6712   0.7827
Ti144     Ti     0.4219   0.6242   0.7842
Ce145     Ce     0.3288   0.5327   0.7827
Ti146     Ti     0.3758   0.5781   0.7842
Ce147     Ce     0.4673   0.7827   0.6712
Ti148     Ti     0.4219   0.7842   0.6242
Ce149     Ce     0.3288   0.7827   0.5327
Ti150     Ti     0.3758   0.7842   0.5781
Er151     Er     0.2389   0.6377   0.6377
Er152     Er     0.3623   0.6377   0.7611
Er153     Er     0.3623   0.7611   0.6377
V154     V     0.3464   0.6998   0.6536
V155     V     0.3464   0.6536   0.6998
V156     V     0.3002   0.6536   0.6536
Ti157     Ti     0.3758   0.4219   0.2158
Ce158     Ce     0.3288   0.4673   0.2174
Ti159     Ti     0.4219   0.3758   0.2158
Ce160     Ce     0.4673   0.3288   0.2174
Ti161     Ti     0.4219   0.2158   0.3758
Ce162     Ce     0.4673   0.2174   0.3288
Ti163     Ti     0.3758   0.2158   0.4219
Ce164     Ce     0.3288   0.2174   0.4673
Ti165     Ti     0.2158   0.3758   0.4219
Ce166     Ce     0.2174   0.3288   0.4673
Ti167     Ti     0.2158   0.4219   0.3758
Ce168     Ce     0.2174   0.4673   0.3288
Er169     Er     0.3623   0.3623   0.2389
Er170     Er     0.3623   0.2389   0.3623
Er171     Er     0.2389   0.3623   0.3623
V172     V     0.3002   0.3464   0.3464
V173     V     0.3464   0.3464   0.3002
V174     V     0.3464   0.3002   0.3464
Ti175     Ti     0.3758   0.7842   0.4219
Ce176     Ce     0.3288   0.7827   0.4673
Ti177     Ti     0.4219   0.7842   0.3758
Ce178     Ce     0.4673   0.7827   0.3288
Ce179     Ce     0.4673   0.6712   0.2174
Ti180     Ti     0.4219   0.6242   0.2158
Ce181     Ce     0.3288   0.5327   0.2174
Ti182     Ti     0.3758   0.5781   0.2158
Ce183     Ce     0.2174   0.6712   0.4673
Ti184     Ti     0.2158   0.6242   0.4219
Ce185     Ce     0.2174   0.5327   0.3288
Ti186     Ti     0.2158   0.5781   0.3758
Er187     Er     0.3623   0.6377   0.2389
Er188     Er     0.2389   0.6377   0.3623
Er189     Er     0.3623   0.7611   0.3623
V190     V     0.3464   0.6998   0.3464
V191     V     0.3002   0.6536   0.3464
V192     V     0.3464   0.6536   0.3002
Ti193     Ti     0.3758   0.7158   0.0781
Ce194     Ce     0.3288   0.7174   0.0327
Ti195     Ti     0.4219   0.7158   0.1242
Ce196     Ce     0.4673   0.7174   0.1712
Ti197     Ti     0.4219   0.8758   0.2842
Ce198     Ce     0.4673   0.8288   0.2826
Ce199     Ce     0.3288   0.9673   0.2826
Ti200     Ti     0.3758   0.9219   0.2842
Ti201     Ti     0.2158   0.8758   0.0781
Ce202     Ce     0.2174   0.8288   0.0327
Ce203     Ce     0.2174   0.9673   0.1712
Ti204     Ti     0.2158   0.9219   0.1242
Er205     Er     0.2389   0.8623   0.1377
Er206     Er     0.3623   0.8623   0.2611
Er207     Er     0.3623   0.7389   0.1377
V208     V     0.3002   0.8464   0.1536
V209     V     0.3464   0.8464   0.1998
V210     V     0.3464   0.8002   0.1536
Ti211     Ti     0.4219   0.2842   0.1242
Ce212     Ce     0.4673   0.2826   0.1712
Ti213     Ti     0.3758   0.2842   0.0781
Ce214     Ce     0.3288   0.2826   0.0327
Ti215     Ti     0.3758   0.0781   0.2842
Ce216     Ce     0.3288   0.0327   0.2826
Ti217     Ti     0.4219   0.1242   0.2842
Ce218     Ce     0.4673   0.1712   0.2826
Ti219     Ti     0.2158   0.0781   0.1242
Ce220     Ce     0.2174   0.0327   0.1712
Ti221     Ti     0.2158   0.1242   0.0781
Ce222     Ce     0.2174   0.1712   0.0327
Er223     Er     0.2389   0.1377   0.1377
Er224     Er     0.3623   0.2611   0.1377
Er225     Er     0.3623   0.1377   0.2611
V226     V     0.3002   0.1536   0.1536
V227     V     0.3464   0.1536   0.1998
V228     V     0.3464   0.1998   0.1536
Ti229     Ti     0.4219   0.7158   0.8758
Ce230     Ce     0.4673   0.7174   0.8288
Ce231     Ce     0.3288   0.7174   0.9673
Ti232     Ti     0.3758   0.7158   0.9219
Ti233     Ti     0.4219   0.8758   0.7158
Ce234     Ce     0.4673   0.8288   0.7174
Ce235     Ce     0.3288   0.9673   0.7174
Ti236     Ti     0.3758   0.9219   0.7158
Ce237     Ce     0.2174   0.8288   0.9673
Ti238     Ti     0.2158   0.8758   0.9219
Ce239     Ce     0.2174   0.9673   0.8288
Ti240     Ti     0.2158   0.9219   0.8758
Er241     Er     0.2389   0.8623   0.8623
Er242     Er     0.3623   0.8623   0.7389
Er243     Er     0.3623   0.7389   0.8623
V244     V     0.3464   0.8464   0.8002
V245     V     0.3464   0.8002   0.8464
V246     V     0.3002   0.8464   0.8464
Ti247     Ti     0.3758   0.0781   0.7158
Ce248     Ce     0.3288   0.0327   0.7174
Ti249     Ti     0.4219   0.1242   0.7158
Ce250     Ce     0.4673   0.1712   0.7174
Ti251     Ti     0.4219   0.2842   0.8758
Ce252     Ce     0.4673   0.2826   0.8288
Ce253     Ce     0.3288   0.2826   0.9673
Ti254     Ti     0.3758   0.2842   0.9219
Ti255     Ti     0.2158   0.0781   0.8758
Ce256     Ce     0.2174   0.0327   0.8288
Ce257     Ce     0.2174   0.1712   0.9673
Ti258     Ti     0.2158   0.1242   0.9219
Er259     Er     0.2389   0.1377   0.8623
Er260     Er     0.3623   0.2611   0.8623
Er261     Er     0.3623   0.1377   0.7389
V262     V     0.3464   0.1998   0.8464
V263     V     0.3002   0.1536   0.8464
V264     V     0.3464   0.1536   0.8002
Ti265     Ti     0.7842   0.1242   0.0781
Ce266     Ce     0.7827   0.1712   0.0327
Ti267     Ti     0.7842   0.0781   0.1242
Ce268     Ce     0.7827   0.0327   0.1712
Ce269     Ce     0.6712   0.2826   0.0327
Ti270     Ti     0.6242   0.2842   0.0781
Ce271     Ce     0.5327   0.2826   0.1712
Ti272     Ti     0.5781   0.2842   0.1242
Ce273     Ce     0.6712   0.0327   0.2826
Ti274     Ti     0.6242   0.0781   0.2842
Ce275     Ce     0.5327   0.1712   0.2826
Ti276     Ti     0.5781   0.1242   0.2842
Er277     Er     0.6377   0.2611   0.1377
Er278     Er     0.6377   0.1377   0.2611
Er279     Er     0.7611   0.1377   0.1377
V280     V     0.6998   0.1536   0.1536
V281     V     0.6536   0.1536   0.1998
V282     V     0.6536   0.1998   0.1536
Ce283     Ce     0.6712   0.7174   0.0327
Ti284     Ti     0.6242   0.7158   0.0781
Ce285     Ce     0.5327   0.7174   0.1712
Ti286     Ti     0.5781   0.7158   0.1242
Ti287     Ti     0.5781   0.8758   0.2842
Ce288     Ce     0.5327   0.8288   0.2826
Ce289     Ce     0.6712   0.9673   0.2826
Ti290     Ti     0.6242   0.9219   0.2842
Ti291     Ti     0.7842   0.8758   0.0781
Ce292     Ce     0.7827   0.8288   0.0327
Ce293     Ce     0.7827   0.9673   0.1712
Ti294     Ti     0.7842   0.9219   0.1242
Er295     Er     0.6377   0.8623   0.2611
Er296     Er     0.7611   0.8623   0.1377
Er297     Er     0.6377   0.7389   0.1377
V298     V     0.6998   0.8464   0.1536
V299     V     0.6536   0.8464   0.1998
V300     V     0.6536   0.8002   0.1536
Ce301     Ce     0.7827   0.8288   0.9673
Ti302     Ti     0.7842   0.8758   0.9219
Ce303     Ce     0.7827   0.9673   0.8288
Ti304     Ti     0.7842   0.9219   0.8758
Ti305     Ti     0.5781   0.7158   0.8758
Ce306     Ce     0.5327   0.7174   0.8288
Ce307     Ce     0.6712   0.7174   0.9673
Ti308     Ti     0.6242   0.7158   0.9219
Ti309     Ti     0.5781   0.8758   0.7158
Ce310     Ce     0.5327   0.8288   0.7174
Ce311     Ce     0.6712   0.9673   0.7174
Ti312     Ti     0.6242   0.9219   0.7158
Er313     Er     0.6377   0.7389   0.8623
Er314     Er     0.6377   0.8623   0.7389
V315     V     0.6998   0.8464   0.8464
V316     V     0.6536   0.8464   0.8002
V317     V     0.6536   0.8002   0.8464
Er318     Er     0.7611   0.8623   0.8623
Ce319     Ce     0.6712   0.0327   0.7174
Ti320     Ti     0.6242   0.0781   0.7158
Ce321     Ce     0.5327   0.1712   0.7174
Ti322     Ti     0.5781   0.1242   0.7158
Ti323     Ti     0.7842   0.0781   0.8758
Ce324     Ce     0.7827   0.0327   0.8288
Ce325     Ce     0.7827   0.1712   0.9673
Ti326     Ti     0.7842   0.1242   0.9219
Ti327     Ti     0.5781   0.2842   0.8758
Ce328     Ce     0.5327   0.2826   0.8288
Ce329     Ce     0.6712   0.2826   0.9673
Ti330     Ti     0.6242   0.2842   0.9219
Er331     Er     0.6377   0.2611   0.8623
Er332     Er     0.7611   0.1377   0.8623
Er333     Er     0.6377   0.1377   0.7389
V334     V     0.6998   0.1536   0.8464
V335     V     0.6536   0.1998   0.8464
V336     V     0.6536   0.1536   0.8002
Ti337     Ti     0.7158   0.4219   0.1242
Ce338     Ce     0.7174   0.4673   0.1712
Ti339     Ti     0.7158   0.3758   0.0781
Ce340     Ce     0.7174   0.3288   0.0327
Ti341     Ti     0.8758   0.4219   0.2842
Ce342     Ce     0.8288   0.4673   0.2826
Ce343     Ce     0.9673   0.3288   0.2826
Ti344     Ti     0.9219   0.3758   0.2842
Ti345     Ti     0.8758   0.2158   0.0781
Ce346     Ce     0.8288   0.2174   0.0327
Ce347     Ce     0.9673   0.2174   0.1712
Ti348     Ti     0.9219   0.2158   0.1242
Er349     Er     0.8623   0.2389   0.1377
Er350     Er     0.8623   0.3623   0.2611
Er351     Er     0.7389   0.3623   0.1377
V352     V     0.8464   0.3002   0.1536
V353     V     0.8464   0.3464   0.1998
V354     V     0.8002   0.3464   0.1536
Ti355     Ti     0.2842   0.3758   0.0781
Ce356     Ce     0.2826   0.3288   0.0327
Ti357     Ti     0.2842   0.4219   0.1242
Ce358     Ce     0.2826   0.4673   0.1712
Ti359     Ti     0.1242   0.4219   0.2842
Ce360     Ce     0.1712   0.4673   0.2826
Ti361     Ti     0.0781   0.3758   0.2842
Ce362     Ce     0.0327   0.3288   0.2826
Ti363     Ti     0.0781   0.2158   0.1242
Ce364     Ce     0.0327   0.2174   0.1712
Ti365     Ti     0.1242   0.2158   0.0781
Ce366     Ce     0.1712   0.2174   0.0327
Er367     Er     0.1377   0.2389   0.1377
Er368     Er     0.2611   0.3623   0.1377
Er369     Er     0.1377   0.3623   0.2611
V370     V     0.1536   0.3002   0.1536
V371     V     0.1536   0.3464   0.1998
V372     V     0.1998   0.3464   0.1536
Ti373     Ti     0.0781   0.3758   0.7158
Ce374     Ce     0.0327   0.3288   0.7174
Ti375     Ti     0.1242   0.4219   0.7158
Ce376     Ce     0.1712   0.4673   0.7174
Ti377     Ti     0.2842   0.4219   0.8758
Ce378     Ce     0.2826   0.4673   0.8288
Ce379     Ce     0.2826   0.3288   0.9673
Ti380     Ti     0.2842   0.3758   0.9219
Ti381     Ti     0.0781   0.2158   0.8758
Ce382     Ce     0.0327   0.2174   0.8288
Ce383     Ce     0.1712   0.2174   0.9673
Ti384     Ti     0.1242   0.2158   0.9219
Er385     Er     0.1377   0.2389   0.8623
Er386     Er     0.2611   0.3623   0.8623
Er387     Er     0.1377   0.3623   0.7389
V388     V     0.1536   0.3002   0.8464
V389     V     0.1998   0.3464   0.8464
V390     V     0.1536   0.3464   0.8002
Ti391     Ti     0.7158   0.4219   0.8758
Ce392     Ce     0.7174   0.4673   0.8288
Ce393     Ce     0.7174   0.3288   0.9673
Ti394     Ti     0.7158   0.3758   0.9219
Ce395     Ce     0.9673   0.2174   0.8288
Ti396     Ti     0.9219   0.2158   0.8758
Ce397     Ce     0.8288   0.2174   0.9673
Ti398     Ti     0.8758   0.2158   0.9219
Ti399     Ti     0.8758   0.4219   0.7158
Ce400     Ce     0.8288   0.4673   0.7174
Ce401     Ce     0.9673   0.3288   0.7174
Ti402     Ti     0.9219   0.3758   0.7158
Er403     Er     0.8623   0.2389   0.8623
Er404     Er     0.7389   0.3623   0.8623
V405     V     0.8464   0.3464   0.8002
V406     V     0.8002   0.3464   0.8464
V407     V     0.8464   0.3002   0.8464
Er408     Er     0.8623   0.3623   0.7389
Ce409     Ce     0.7174   0.6712   0.0327
Ti410     Ti     0.7158   0.6242   0.0781
Ce411     Ce     0.7174   0.5327   0.1712
Ti412     Ti     0.7158   0.5781   0.1242
Ti413     Ti     0.8758   0.5781   0.2842
Ce414     Ce     0.8288   0.5327   0.2826
Ce415     Ce     0.9673   0.6712   0.2826
Ti416     Ti     0.9219   0.6242   0.2842
Ti417     Ti     0.8758   0.7842   0.0781
Ce418     Ce     0.8288   0.7827   0.0327
Ce419     Ce     0.9673   0.7827   0.1712
Ti420     Ti     0.9219   0.7842   0.1242
Er421     Er     0.8623   0.6377   0.2611
Er422     Er     0.8623   0.7611   0.1377
Er423     Er     0.7389   0.6377   0.1377
V424     V     0.8464   0.6998   0.1536
V425     V     0.8464   0.6536   0.1998
V426     V     0.8002   0.6536   0.1536
Ti427     Ti     0.0781   0.7842   0.1242
Ce428     Ce     0.0327   0.7827   0.1712
Ti429     Ti     0.1242   0.7842   0.0781
Ce430     Ce     0.1712   0.7827   0.0327
Ce431     Ce     0.2826   0.6712   0.0327
Ti432     Ti     0.2842   0.6242   0.0781
Ce433     Ce     0.2826   0.5327   0.1712
Ti434     Ti     0.2842   0.5781   0.1242
Ce435     Ce     0.0327   0.6712   0.2826
Ti436     Ti     0.0781   0.6242   0.2842
Ce437     Ce     0.1712   0.5327   0.2826
Ti438     Ti     0.1242   0.5781   0.2842
Er439     Er     0.2611   0.6377   0.1377
Er440     Er     0.1377   0.6377   0.2611
Er441     Er     0.1377   0.7611   0.1377
V442     V     0.1536   0.6998   0.1536
V443     V     0.1536   0.6536   0.1998
V444     V     0.1998   0.6536   0.1536
Ce445     Ce     0.8288   0.7827   0.9673
Ti446     Ti     0.8758   0.7842   0.9219
Ce447     Ce     0.9673   0.7827   0.8288
Ti448     Ti     0.9219   0.7842   0.8758
Ti449     Ti     0.7158   0.5781   0.8758
Ce450     Ce     0.7174   0.5327   0.8288
Ce451     Ce     0.7174   0.6712   0.9673
Ti452     Ti     0.7158   0.6242   0.9219
Ti453     Ti     0.8758   0.5781   0.7158
Ce454     Ce     0.8288   0.5327   0.7174
Ce455     Ce     0.9673   0.6712   0.7174
Ti456     Ti     0.9219   0.6242   0.7158
Er457     Er     0.7389   0.6377   0.8623
Er458     Er     0.8623   0.6377   0.7389
V459     V     0.8464   0.6998   0.8464
V460     V     0.8464   0.6536   0.8002
V461     V     0.8002   0.6536   0.8464
Er462     Er     0.8623   0.7611   0.8623
Ce463     Ce     0.0327   0.6712   0.7174
Ti464     Ti     0.0781   0.6242   0.7158
Ce465     Ce     0.1712   0.5327   0.7174
Ti466     Ti     0.1242   0.5781   0.7158
Ti467     Ti     0.0781   0.7842   0.8758
Ce468     Ce     0.0327   0.7827   0.8288
Ce469     Ce     0.1712   0.7827   0.9673
Ti470     Ti     0.1242   0.7842   0.9219
Ti471     Ti     0.2842   0.5781   0.8758
Ce472     Ce     0.2826   0.5327   0.8288
Ce473     Ce     0.2826   0.6712   0.9673
Ti474     Ti     0.2842   0.6242   0.9219
Er475     Er     0.2611   0.6377   0.8623
Er476     Er     0.1377   0.7611   0.8623
Er477     Er     0.1377   0.6377   0.7389
V478     V     0.1536   0.6998   0.8464
V479     V     0.1998   0.6536   0.8464
V480     V     0.1536   0.6536   0.8002
Ce481     Ce     0.7174   0.0327   0.6712
Ti482     Ti     0.7158   0.0781   0.6242
Ce483     Ce     0.7174   0.1712   0.5327
Ti484     Ti     0.7158   0.1242   0.5781
Ti485     Ti     0.8758   0.2842   0.5781
Ce486     Ce     0.8288   0.2826   0.5327
Ce487     Ce     0.9673   0.2826   0.6712
Ti488     Ti     0.9219   0.2842   0.6242
Ti489     Ti     0.8758   0.0781   0.7842
Ce490     Ce     0.8288   0.0327   0.7827
Ce491     Ce     0.9673   0.1712   0.7827
Ti492     Ti     0.9219   0.1242   0.7842
Er493     Er     0.8623   0.2611   0.6377
Er494     Er     0.8623   0.1377   0.7611
Er495     Er     0.7389   0.1377   0.6377
V496     V     0.8464   0.1536   0.6998
V497     V     0.8464   0.1998   0.6536
V498     V     0.8002   0.1536   0.6536
Ti499     Ti     0.0781   0.1242   0.7842
Ce500     Ce     0.0327   0.1712   0.7827
Ti501     Ti     0.1242   0.0781   0.7842
Ce502     Ce     0.1712   0.0327   0.7827
Ce503     Ce     0.2826   0.0327   0.6712
Ti504     Ti     0.2842   0.0781   0.6242
Ce505     Ce     0.2826   0.1712   0.5327
Ti506     Ti     0.2842   0.1242   0.5781
Ce507     Ce     0.0327   0.2826   0.6712
Ti508     Ti     0.0781   0.2842   0.6242
Ce509     Ce     0.1712   0.2826   0.5327
Ti510     Ti     0.1242   0.2842   0.5781
Er511     Er     0.2611   0.1377   0.6377
Er512     Er     0.1377   0.2611   0.6377
Er513     Er     0.1377   0.1377   0.7611
V514     V     0.1536   0.1536   0.6998
V515     V     0.1536   0.1998   0.6536
V516     V     0.1998   0.1536   0.6536
Ce517     Ce     0.8288   0.9673   0.7827
Ti518     Ti     0.8758   0.9219   0.7842
Ce519     Ce     0.9673   0.8288   0.7827
Ti520     Ti     0.9219   0.8758   0.7842
Ti521     Ti     0.7158   0.8758   0.5781
Ce522     Ce     0.7174   0.8288   0.5327
Ce523     Ce     0.7174   0.9673   0.6712
Ti524     Ti     0.7158   0.9219   0.6242
Ti525     Ti     0.8758   0.7158   0.5781
Ce526     Ce     0.8288   0.7174   0.5327
Ce527     Ce     0.9673   0.7174   0.6712
Ti528     Ti     0.9219   0.7158   0.6242
Er529     Er     0.7389   0.8623   0.6377
Er530     Er     0.8623   0.7389   0.6377
V531     V     0.8464   0.8464   0.6998
V532     V     0.8464   0.8002   0.6536
V533     V     0.8002   0.8464   0.6536
Er534     Er     0.8623   0.8623   0.7611
Ce535     Ce     0.0327   0.7174   0.6712
Ti536     Ti     0.0781   0.7158   0.6242
Ce537     Ce     0.1712   0.7174   0.5327
Ti538     Ti     0.1242   0.7158   0.5781
Ti539     Ti     0.2842   0.8758   0.5781
Ce540     Ce     0.2826   0.8288   0.5327
Ce541     Ce     0.2826   0.9673   0.6712
Ti542     Ti     0.2842   0.9219   0.6242
Ti543     Ti     0.0781   0.8758   0.7842
Ce544     Ce     0.0327   0.8288   0.7827
Ce545     Ce     0.1712   0.9673   0.7827
Ti546     Ti     0.1242   0.9219   0.7842
Er547     Er     0.2611   0.8623   0.6377
Er548     Er     0.1377   0.8623   0.7611
Er549     Er     0.1377   0.7389   0.6377
V550     V     0.1536   0.8464   0.6998
V551     V     0.1998   0.8464   0.6536
V552     V     0.1536   0.8002   0.6536
Ti553     Ti     0.7158   0.0781   0.3758
Ce554     Ce     0.7174   0.0327   0.3288
Ti555     Ti     0.7158   0.1242   0.4219
Ce556     Ce     0.7174   0.1712   0.4673
Ti557     Ti     0.8758   0.2842   0.4219
Ce558     Ce     0.8288   0.2826   0.4673
Ce559     Ce     0.9673   0.2826   0.3288
Ti560     Ti     0.9219   0.2842   0.3758
Ti561     Ti     0.8758   0.0781   0.2158
Ce562     Ce     0.8288   0.0327   0.2174
Ce563     Ce     0.9673   0.1712   0.2174
Ti564     Ti     0.9219   0.1242   0.2158
Er565     Er     0.8623   0.1377   0.2389
Er566     Er     0.8623   0.2611   0.3623
Er567     Er     0.7389   0.1377   0.3623
V568     V     0.8464   0.1536   0.3002
V569     V     0.8464   0.1998   0.3464
V570     V     0.8002   0.1536   0.3464
Ti571     Ti     0.7158   0.8758   0.4219
Ce572     Ce     0.7174   0.8288   0.4673
Ce573     Ce     0.7174   0.9673   0.3288
Ti574     Ti     0.7158   0.9219   0.3758
Ti575     Ti     0.8758   0.7158   0.4219
Ce576     Ce     0.8288   0.7174   0.4673
Ce577     Ce     0.9673   0.7174   0.3288
Ti578     Ti     0.9219   0.7158   0.3758
Ce579     Ce     0.8288   0.9673   0.2174
Ti580     Ti     0.8758   0.9219   0.2158
Ce581     Ce     0.9673   0.8288   0.2174
Ti582     Ti     0.9219   0.8758   0.2158
Er583     Er     0.8623   0.8623   0.2389
Er584     Er     0.7389   0.8623   0.3623
Er585     Er     0.8623   0.7389   0.3623
V586     V     0.8464   0.8002   0.3464
V587     V     0.8002   0.8464   0.3464
V588     V     0.8464   0.8464   0.3002
Ti589     Ti     0.2842   0.1242   0.4219
Ce590     Ce     0.2826   0.1712   0.4673
Ti591     Ti     0.2842   0.0781   0.3758
Ce592     Ce     0.2826   0.0327   0.3288
Ti593     Ti     0.0781   0.2842   0.3758
Ce594     Ce     0.0327   0.2826   0.3288
Ti595     Ti     0.1242   0.2842   0.4219
Ce596     Ce     0.1712   0.2826   0.4673
Ti597     Ti     0.1242   0.0781   0.2158
Ce598     Ce     0.1712   0.0327   0.2174
Ti599     Ti     0.0781   0.1242   0.2158
Ce600     Ce     0.0327   0.1712   0.2174
Er601     Er     0.1377   0.1377   0.2389
Er602     Er     0.2611   0.1377   0.3623
Er603     Er     0.1377   0.2611   0.3623
V604     V     0.1536   0.1536   0.3002
V605     V     0.1536   0.1998   0.3464
V606     V     0.1998   0.1536   0.3464
Ti607     Ti     0.1242   0.7158   0.4219
Ce608     Ce     0.1712   0.7174   0.4673
Ti609     Ti     0.0781   0.7158   0.3758
Ce610     Ce     0.0327   0.7174   0.3288
Ti611     Ti     0.2842   0.8758   0.4219
Ce612     Ce     0.2826   0.8288   0.4673
Ce613     Ce     0.2826   0.9673   0.3288
Ti614     Ti     0.2842   0.9219   0.3758
Ti615     Ti     0.0781   0.8758   0.2158
Ce616     Ce     0.0327   0.8288   0.2174
Ce617     Ce     0.1712   0.9673   0.2174
Ti618     Ti     0.1242   0.9219   0.2158
Er619     Er     0.1377   0.8623   0.2389
Er620     Er     0.2611   0.8623   0.3623
Er621     Er     0.1377   0.7389   0.3623
V622     V     0.1536   0.8464   0.3002
V623     V     0.1998   0.8464   0.3464
V624     V     0.1536   0.8002   0.3464
loop_
_geom_bond_atom_site_label_1
_geom_bond_atom_site_label_2
_geom_bond_distance
_geom_bond_site_symmetry_2
_ccdc_geom_bond_type
S1     Ce301    10.001   1_554     S
S1     Ce445    10.001   1_554     S
S1     Ce418    10.001   .     S
S1     Ce292    10.001   .     S
S1     S2    10.0   .     S
S2     Ce451    10.001   1_554     S
S2     Ce307    10.001   1_554     S
S2     Ce283    10.001   .     S
S2     Ce409    10.001   .     S
S3     Ce306    10.001   .     S
S3     Ce85    10.001   .     S
S3     Ce230    10.001   .     S
S3     Ce143    10.001   .     S
S3     S4    10.0   .     S
S4     Ce310    10.001   .     S
S4     Ce91    10.001   .     S
S4     Ce234    10.001   .     S
S4     Ce147    10.001   .     S
S5     Ce517    10.001   1_545     S
S5     Ce303    10.001   1_545     S
S5     Ce324    10.001   .     S
S5     Ce490    10.001   .     S
S5     S6    10.0   .     S
S6     Ce311    10.001   1_545     S
S6     Ce523    10.001   1_545     S
S6     Ce481    10.001   .     S
S6     Ce319    10.001   .     S
S7     Ce522    10.001   .     S
S7     Ce89    10.001   .     S
S7     Ce572    10.001   .     S
S7     Ce53    10.001   .     S
S7     S8    10.0   .     S
S8     Ce526    10.001   .     S
S8     Ce93    10.001   .     S
S8     Ce576    10.001   .     S
S8     Ce57    10.001   .     S
S9     Ce447    10.001   1_455     S
S9     Ce519    10.001   1_455     S
S9     Ce544    10.001   .     S
S9     Ce468    10.001   .     S
S9     S10    10.0   .     S
S10     Ce455    10.001   1_455     S
S10     Ce527    10.001   1_455     S
S10     Ce463    10.001   .     S
S10     Ce535    10.001   .     S
S11     Ce450    10.001   .     S
S11     Ce87    10.001   .     S
S11     Ce392    10.001   .     S
S11     Ce107    10.001   .     S
S11     S12    10.0   .     S
S12     Ce454    10.001   .     S
S12     Ce95    10.001   .     S
S12     Ce400    10.001   .     S
S12     Ce111    10.001   .     S
S13     Ce397    10.001   1_554     S
S13     Ce346    10.001   .     S
S13     Ce325    10.001   1_554     S
S13     Ce266    10.001   .     S
S13     S14    10.0   .     S
S14     Ce329    10.001   1_554     S
S14     Ce393    10.001   1_554     S
S14     Ce269    10.001   .     S
S14     Ce340    10.001   .     S
S15     Ce237    10.001   1_554     S
S15     Ce469    10.001   1_554     S
S15     Ce202    10.001   .     S
S15     Ce430    10.001   .     S
S15     S16    10.0   .     S
S16     Ce473    10.001   1_554     S
S16     Ce231    10.001   1_554     S
S16     Ce431    10.001   .     S
S16     Ce194    10.001   .     S
S17     Ce486    10.001   .     S
S17     Ce113    10.001   .     S
S17     Ce558    10.001   .     S
S17     Ce70    10.001   .     S
S17     S18    10.0   .     S
S18     Ce103    10.001   .     S
S18     Ce483    10.001   .     S
S18     Ce75    10.001   .     S
S18     Ce556    10.001   .     S
S19     Ce271    10.001   .     S
S19     Ce73    10.001   .     S
S19     Ce160    10.001   .     S
S19     Ce212    10.001   .     S
S19     S20    10.0   .     S
S20     Ce77    10.001   .     S
S20     Ce275    10.001   .     S
S20     Ce218    10.001   .     S
S20     Ce162    10.001   .     S
S21     Ce505    10.001   .     S
S21     Ce127    10.001   .     S
S21     Ce164    10.001   .     S
S21     Ce590    10.001   .     S
S21     S22    10.0   .     S
S22     Ce131    10.001   .     S
S22     Ce509    10.001   .     S
S22     Ce596    10.001   .     S
S22     Ce166    10.001   .     S
S23     Ce540    10.001   .     S
S23     Ce149    10.001   .     S
S23     Ce612    10.001   .     S
S23     Ce176    10.001   .     S
S23     S24    10.0   .     S
S24     Ce141    10.001   .     S
S24     Ce537    10.001   .     S
S24     Ce183    10.001   .     S
S24     Ce608    10.001   .     S
S25     Ce181    10.001   .     S
S25     Ce433    10.001   .     S
S25     Ce358    10.001   .     S
S25     Ce158    10.001   .     S
S25     S26    10.0   .     S
S26     Ce437    10.001   .     S
S26     Ce185    10.001   .     S
S26     Ce168    10.001   .     S
S26     Ce360    10.001   .     S
S27     Ce379    10.001   1_554     S
S27     Ce253    10.001   1_554     S
S27     Ce214    10.001   .     S
S27     Ce356    10.001   .     S
S27     S28    10.0   .     S
S28     Ce257    10.001   1_554     S
S28     Ce383    10.001   1_554     S
S28     Ce366    10.001   .     S
S28     Ce222    10.001   .     S
S29     Ce559    10.001   1_455     S
S29     Ce343    10.001   1_455     S
S29     Ce362    10.001   .     S
S29     Ce594    10.001   .     S
S29     S30    10.0   .     S
S30     Ce347    10.001   1_455     S
S30     Ce563    10.001   1_455     S
S30     Ce600    10.001   .     S
S30     Ce364    10.001   .     S
S31     Ce199    10.001   1_545     S
S31     Ce613    10.001   1_545     S
S31     Ce592    10.001   .     S
S31     Ce216    10.001   .     S
S31     S32    10.0   .     S
S32     Ce617    10.001   1_545     S
S32     Ce203    10.001   1_545     S
S32     Ce220    10.001   .     S
S32     Ce598    10.001   .     S
S33     Ce288    10.001   .     S
S33     Ce55    10.001   .     S
S33     Ce198    10.001   .     S
S33     Ce178    10.001   .     S
S33     S34    10.0   .     S
S34     Ce51    10.001   .     S
S34     Ce285    10.001   .     S
S34     Ce179    10.001   .     S
S34     Ce196    10.001   .     S
S35     Ce414    10.001   .     S
S35     Ce59    10.001   .     S
S35     Ce342    10.001   .     S
S35     Ce68    10.001   .     S
S35     S36    10.0   .     S
S36     Ce49    10.001   .     S
S36     Ce411    10.001   .     S
S36     Ce71    10.001   .     S
S36     Ce338    10.001   .     S
S37     Ce239    10.001   1_545     S
S37     Ce545    10.001   1_545     S
S37     Ce256    10.001   .     S
S37     Ce502    10.001   .     S
S37     S38    10.0   .     S
S38     Ce541    10.001   1_545     S
S38     Ce235    10.001   1_545     S
S38     Ce503    10.001   .     S
S38     Ce248    10.001   .     S
S39     Ce579    10.001   1_545     S
S39     Ce562    10.001   .     S
S39     Ce293    10.001   1_545     S
S39     Ce268    10.001   .     S
S39     S40    10.0   .     S
S40     Ce289    10.001   1_545     S
S40     Ce573    10.001   1_545     S
S40     Ce273    10.001   .     S
S40     Ce554    10.001   .     S
S41     Ce328    10.001   .     S
S41     Ce109    10.001   .     S
S41     Ce252    10.001   .     S
S41     Ce122    10.001   .     S
S41     S42    10.0   .     S
S42     Ce105    10.001   .     S
S42     Ce321    10.001   .     S
S42     Ce125    10.001   .     S
S42     Ce250    10.001   .     S
S43     Ce581    10.001   1_455     S
S43     Ce616    10.001   .     S
S43     Ce419    10.001   1_455     S
S43     Ce428    10.001   .     S
S43     S44    10.0   .     S
S44     Ce415    10.001   1_455     S
S44     Ce577    10.001   1_455     S
S44     Ce435    10.001   .     S
S44     Ce610    10.001   .     S
S45     Ce472    10.001   .     S
S45     Ce145    10.001   .     S
S45     Ce378    10.001   .     S
S45     Ce124    10.001   .     S
S45     S46    10.0   .     S
S46     Ce139    10.001   .     S
S46     Ce465    10.001   .     S
S46     Ce129    10.001   .     S
S46     Ce376    10.001   .     S
S47     Ce395    10.001   1_455     S
S47     Ce491    10.001   1_455     S
S47     Ce382    10.001   .     S
S47     Ce500    10.001   .     S
S47     S48    10.0   .     S
S48     Ce487    10.001   1_455     S
S48     Ce401    10.001   1_455     S
S48     Ce507    10.001   .     S
S48     Ce374    10.001   .     S
Ce49     Ti50    9.999   .     S
Ce49     Ce71    10.002   .     S
Ce49     Ce411    10.002   .     S
Ti50     Ti52    10.0   .     S
Ti50     Er61    9.999   .     S
Ce51     Ti52    9.999   .     S
Ce51     Ce179    10.002   .     S
Ce51     Ce285    10.002   .     S
Ti52     Er61    9.999   .     S
Ce53     Ti54    9.999   .     S
Ce53     Ce89    10.002   .     S
Ce53     Ce572    10.002   .     S
Ti54     Ti56    10.0   .     S
Ti54     Er62    9.999   .     S
Ce55     Ti56    9.999   .     S
Ce55     Ce178    10.002   .     S
Ce55     Ce288    10.002   .     S
Ti56     Er62    9.999   .     S
Ce57     Ti58    9.999   .     S
Ce57     Ce93    10.002   .     S
Ce57     Ce576    10.002   .     S
Ti58     Ti60    10.0   .     S
Ti58     Er63    9.999   .     S
Ce59     Ti60    9.999   .     S
Ce59     Ce68    10.002   .     S
Ce59     Ce414    10.002   .     S
Ti60     Er63    9.999   .     S
Er61     V66    10.001   .     S
Er62     V64    10.001   .     S
Er63     V65    10.001   .     S
V64     V66    10.0   .     S
V64     V65    10.0   .     S
V65     V66    10.0   .     S
Ti67     Ce68    9.999   .     S
Ti67     Ti69    10.0   .     S
Ti67     Er84    9.999   .     S
Ce68     Ce342    10.002   .     S
Ti69     Ce70    9.999   .     S
Ti69     Er84    9.999   .     S
Ce70     Ce113    10.002   .     S
Ce70     Ce558    10.002   .     S
Ce71     Ti72    9.999   .     S
Ce71     Ce338    10.002   .     S
Ti72     Ti74    10.0   .     S
Ti72     Er79    9.999   .     S
Ce73     Ti74    9.999   .     S
Ce73     Ce160    10.002   .     S
Ce73     Ce271    10.002   .     S
Ti74     Er79    9.999   .     S
Ce75     Ti76    9.999   .     S
Ce75     Ce103    10.002   .     S
Ce75     Ce556    10.002   .     S
Ti76     Ti78    10.0   .     S
Ti76     Er80    9.999   .     S
Ce77     Ti78    9.999   .     S
Ce77     Ce162    10.002   .     S
Ce77     Ce275    10.002   .     S
Ti78     Er80    9.999   .     S
Er79     V83    10.001   .     S
Er80     V82    10.001   .     S
V81     V82    10.0   .     S
V81     V83    10.0   .     S
V81     Er84    10.001   .     S
V82     V83    10.0   .     S
Ce85     Ti86    9.999   .     S
Ce85     Ce143    10.002   .     S
Ce85     Ce306    10.002   .     S
Ti86     Ti88    10.0   .     S
Ti86     Er97    9.999   .     S
Ce87     Ti88    9.999   .     S
Ce87     Ce107    10.002   .     S
Ce87     Ce450    10.002   .     S
Ti88     Er97    9.999   .     S
Ce89     Ti90    9.999   .     S
Ce89     Ce522    10.002   .     S
Ti90     Ti92    10.0   .     S
Ti90     Er98    9.999   .     S
Ce91     Ti92    9.999   .     S
Ce91     Ce147    10.002   .     S
Ce91     Ce310    10.002   .     S
Ti92     Er98    9.999   .     S
Ce93     Ti94    9.999   .     S
Ce93     Ce526    10.002   .     S
Ti94     Ti96    10.0   .     S
Ti94     Er99    9.999   .     S
Ce95     Ti96    9.999   .     S
Ce95     Ce111    10.002   .     S
Ce95     Ce454    10.002   .     S
Ti96     Er99    9.999   .     S
Er97     V102    10.001   .     S
Er98     V101    10.001   .     S
Er99     V100    10.001   .     S
V100     V101    10.0   .     S
V100     V102    10.0   .     S
V101     V102    10.0   .     S
Ce103     Ti104    9.999   .     S
Ce103     Ce483    10.002   .     S
Ti104     Ti106    10.0   .     S
Ti104     Er115    9.999   .     S
Ce105     Ti106    9.999   .     S
Ce105     Ce125    10.002   .     S
Ce105     Ce321    10.002   .     S
Ti106     Er115    9.999   .     S
Ce107     Ti108    9.999   .     S
Ce107     Ce392    10.002   .     S
Ti108     Ti110    10.0   .     S
Ti108     Er116    9.999   .     S
Ce109     Ti110    9.999   .     S
Ce109     Ce122    10.002   .     S
Ce109     Ce328    10.002   .     S
Ti110     Er116    9.999   .     S
Ce111     Ti112    9.999   .     S
Ce111     Ce400    10.002   .     S
Ti112     Ti114    10.0   .     S
Ti112     Er117    9.999   .     S
Ce113     Ti114    9.999   .     S
Ce113     Ce486    10.002   .     S
Ti114     Er117    9.999   .     S
Er115     V120    10.001   .     S
Er116     V118    10.001   .     S
Er117     V119    10.001   .     S
V118     V120    10.0   .     S
V118     V119    10.0   .     S
V119     V120    10.0   .     S
Ti121     Ce122    9.999   .     S
Ti121     Ti123    10.0   .     S
Ti121     Er135    9.999   .     S
Ce122     Ce252    10.002   .     S
Ti123     Ce124    9.999   .     S
Ti123     Er135    9.999   .     S
Ce124     Ce145    10.002   .     S
Ce124     Ce378    10.002   .     S
Ce125     Ti126    9.999   .     S
Ce125     Ce250    10.002   .     S
Ti126     Ti128    10.0   .     S
Ti126     Er133    9.999   .     S
Ce127     Ti128    9.999   .     S
Ce127     Ce164    10.002   .     S
Ce127     Ce505    10.002   .     S
Ti128     Er133    9.999   .     S
Ce129     Ti130    9.999   .     S
Ce129     Ce139    10.002   .     S
Ce129     Ce376    10.002   .     S
Ti130     Ti132    10.0   .     S
Ti130     Er134    9.999   .     S
Ce131     Ti132    9.999   .     S
Ce131     Ce166    10.002   .     S
Ce131     Ce509    10.002   .     S
Ti132     Er134    9.999   .     S
Er133     V138    10.001   .     S
Er134     V137    10.001   .     S
Er135     V136    10.001   .     S
V136     V137    10.0   .     S
V136     V138    10.0   .     S
V137     V138    10.0   .     S
Ce139     Ti140    9.999   .     S
Ce139     Ce465    10.002   .     S
Ti140     Ti142    10.0   .     S
Ti140     Er151    9.999   .     S
Ce141     Ti142    9.999   .     S
Ce141     Ce183    10.002   .     S
Ce141     Ce537    10.002   .     S
Ti142     Er151    9.999   .     S
Ce143     Ti144    9.999   .     S
Ce143     Ce230    10.002   .     S
Ti144     Ti146    10.0   .     S
Ti144     Er152    9.999   .     S
Ce145     Ti146    9.999   .     S
Ce145     Ce472    10.002   .     S
Ti146     Er152    9.999   .     S
Ce147     Ti148    9.999   .     S
Ce147     Ce234    10.002   .     S
Ti148     Ti150    10.0   .     S
Ti148     Er153    9.999   .     S
Ce149     Ti150    9.999   .     S
Ce149     Ce176    10.002   .     S
Ce149     Ce540    10.002   .     S
Ti150     Er153    9.999   .     S
Er151     V156    10.001   .     S
Er152     V155    10.001   .     S
Er153     V154    10.001   .     S
V154     V156    10.0   .     S
V154     V155    10.0   .     S
V155     V156    10.0   .     S
Ti157     Ce158    9.999   .     S
Ti157     Ti159    10.0   .     S
Ti157     Er169    9.999   .     S
Ce158     Ce181    10.002   .     S
Ce158     Ce358    10.002   .     S
Ti159     Ce160    9.999   .     S
Ti159     Er169    9.999   .     S
Ce160     Ce212    10.002   .     S
Ti161     Ce162    9.999   .     S
Ti161     Ti163    10.0   .     S
Ti161     Er170    9.999   .     S
Ce162     Ce218    10.002   .     S
Ti163     Ce164    9.999   .     S
Ti163     Er170    9.999   .     S
Ce164     Ce590    10.002   .     S
Ti165     Ce166    9.999   .     S
Ti165     Ti167    10.0   .     S
Ti165     Er171    9.999   .     S
Ce166     Ce596    10.002   .     S
Ti167     Ce168    9.999   .     S
Ti167     Er171    9.999   .     S
Ce168     Ce185    10.002   .     S
Ce168     Ce360    10.002   .     S
Er169     V173    10.001   .     S
Er170     V174    10.001   .     S
Er171     V172    10.001   .     S
V172     V173    10.0   .     S
V172     V174    10.0   .     S
V173     V174    10.0   .     S
Ti175     Ce176    9.999   .     S
Ti175     Ti177    10.0   .     S
Ti175     Er189    9.999   .     S
Ce176     Ce612    10.002   .     S
Ti177     Ce178    9.999   .     S
Ti177     Er189    9.999   .     S
Ce178     Ce198    10.002   .     S
Ce179     Ti180    9.999   .     S
Ce179     Ce196    10.002   .     S
Ti180     Ti182    10.0   .     S
Ti180     Er187    9.999   .     S
Ce181     Ti182    9.999   .     S
Ce181     Ce433    10.002   .     S
Ti182     Er187    9.999   .     S
Ce183     Ti184    9.999   .     S
Ce183     Ce608    10.002   .     S
Ti184     Ti186    10.0   .     S
Ti184     Er188    9.999   .     S
Ce185     Ti186    9.999   .     S
Ce185     Ce437    10.002   .     S
Ti186     Er188    9.999   .     S
Er187     V192    10.001   .     S
Er188     V191    10.001   .     S
Er189     V190    10.001   .     S
V190     V191    10.0   .     S
V190     V192    10.0   .     S
V191     V192    10.0   .     S
Ti193     Ce194    9.999   .     S
Ti193     Ti195    10.0   .     S
Ti193     Er207    9.999   .     S
Ce194     Ce231    10.002   1_554     S
Ce194     Ce431    10.002   .     S
Ti195     Ce196    9.999   .     S
Ti195     Er207    9.999   .     S
Ce196     Ce285    10.002   .     S
Ti197     Ce198    9.999   .     S
Ti197     Ti200    10.0   .     S
Ti197     Er206    9.999   .     S
Ce198     Ce288    10.002   .     S
Ce199     S31    10.001   1_565     S
Ce199     Ti200    9.999   .     S
Ce199     Ce216    10.002   1_565     S
Ce199     Ce613    10.002   .     S
Ti200     Er206    9.999   .     S
Ti201     Ce202    9.999   .     S
Ti201     Ti204    10.0   .     S
Ti201     Er205    9.999   .     S
Ce202     Ce237    10.002   1_554     S
Ce202     Ce430    10.002   .     S
Ce203     S32    10.001   1_565     S
Ce203     Ti204    9.999   .     S
Ce203     Ce220    10.002   1_565     S
Ce203     Ce617    10.002   .     S
Ti204     Er205    9.999   .     S
Er205     V208    10.001   .     S
Er206     V209    10.001   .     S
Er207     V210    10.001   .     S
V208     V210    10.0   .     S
V208     V209    10.0   .     S
V209     V210    10.0   .     S
Ti211     Ce212    9.999   .     S
Ti211     Ti213    10.0   .     S
Ti211     Er224    9.999   .     S
Ce212     Ce271    10.002   .     S
Ti213     Ce214    9.999   .     S
Ti213     Er224    9.999   .     S
Ce214     Ce253    10.002   1_554     S
Ce214     Ce356    10.002   .     S
Ti215     Ce216    9.999   .     S
Ti215     Ti217    10.0   .     S
Ti215     Er225    9.999   .     S
Ce216     Ce199    10.002   1_545     S
Ce216     Ce592    10.002   .     S
Ti217     Ce218    9.999   .     S
Ti217     Er225    9.999   .     S
Ce218     Ce275    10.002   .     S
Ti219     Ce220    9.999   .     S
Ti219     Ti221    10.0   .     S
Ti219     Er223    9.999   .     S
Ce220     Ce203    10.002   1_545     S
Ce220     Ce598    10.002   .     S
Ti221     Ce222    9.999   .     S
Ti221     Er223    9.999   .     S
Ce222     Ce257    10.002   1_554     S
Ce222     Ce366    10.002   .     S
Er223     V226    10.001   .     S
Er224     V228    10.001   .     S
Er225     V227    10.001   .     S
V226     V227    10.0   .     S
V226     V228    10.0   .     S
V227     V228    10.0   .     S
Ti229     Ce230    9.999   .     S
Ti229     Ti232    10.0   .     S
Ti229     Er243    9.999   .     S
Ce230     Ce306    10.002   .     S
Ce231     S16    10.001   1_556     S
Ce231     Ce194    10.002   1_556     S
Ce231     Ti232    9.999   .     S
Ce231     Ce473    10.002   .     S
Ti232     Er243    9.999   .     S
Ti233     Ce234    9.999   .     S
Ti233     Ti236    10.0   .     S
Ti233     Er242    9.999   .     S
Ce234     Ce310    10.002   .     S
Ce235     S38    10.001   1_565     S
Ce235     Ti236    9.999   .     S
Ce235     Ce248    10.002   1_565     S
Ce235     Ce541    10.002   .     S
Ti236     Er242    9.999   .     S
Ce237     S15    10.001   1_556     S
Ce237     Ce202    10.002   1_556     S
Ce237     Ti238    9.999   .     S
Ce237     Ce469    10.002   .     S
Ti238     Ti240    10.0   .     S
Ti238     Er241    9.999   .     S
Ce239     S37    10.001   1_565     S
Ce239     Ti240    9.999   .     S
Ce239     Ce256    10.002   1_565     S
Ce239     Ce545    10.002   .     S
Ti240     Er241    9.999   .     S
Er241     V246    10.001   .     S
Er242     V244    10.001   .     S
Er243     V245    10.001   .     S
V244     V245    10.0   .     S
V244     V246    10.0   .     S
V245     V246    10.0   .     S
Ti247     Ce248    9.999   .     S
Ti247     Ti249    10.0   .     S
Ti247     Er261    9.999   .     S
Ce248     Ce235    10.002   1_545     S
Ce248     Ce503    10.002   .     S
Ti249     Ce250    9.999   .     S
Ti249     Er261    9.999   .     S
Ce250     Ce321    10.002   .     S
Ti251     Ce252    9.999   .     S
Ti251     Ti254    10.0   .     S
Ti251     Er260    9.999   .     S
Ce252     Ce328    10.002   .     S
Ce253     S27    10.001   1_556     S
Ce253     Ce214    10.002   1_556     S
Ce253     Ti254    9.999   .     S
Ce253     Ce379    10.002   .     S
Ti254     Er260    9.999   .     S
Ti255     Ce256    9.999   .     S
Ti255     Ti258    10.0   .     S
Ti255     Er259    9.999   .     S
Ce256     Ce239    10.002   1_545     S
Ce256     Ce502    10.002   .     S
Ce257     S28    10.001   1_556     S
Ce257     Ce222    10.002   1_556     S
Ce257     Ti258    9.999   .     S
Ce257     Ce383    10.002   .     S
Ti258     Er259    9.999   .     S
Er259     V263    10.001   .     S
Er260     V262    10.001   .     S
Er261     V264    10.001   .     S
V262     V263    10.0   .     S
V262     V264    10.0   .     S
V263     V264    10.0   .     S
Ti265     Ce266    9.999   .     S
Ti265     Ti267    10.0   .     S
Ti265     Er279    9.999   .     S
Ce266     Ce325    10.002   1_554     S
Ce266     Ce346    10.002   .     S
Ti267     Ce268    9.999   .     S
Ti267     Er279    9.999   .     S
Ce268     Ce293    10.002   1_545     S
Ce268     Ce562    10.002   .     S
Ce269     Ti270    9.999   .     S
Ce269     Ce329    10.002   1_554     S
Ce269     Ce340    10.002   .     S
Ti270     Ti272    10.0   .     S
Ti270     Er277    9.999   .     S
Ce271     Ti272    9.999   .     S
Ti272     Er277    9.999   .     S
Ce273     Ti274    9.999   .     S
Ce273     Ce289    10.002   1_545     S
Ce273     Ce554    10.002   .     S
Ti274     Ti276    10.0   .     S
Ti274     Er278    9.999   .     S
Ce275     Ti276    9.999   .     S
Ti276     Er278    9.999   .     S
Er277     V282    10.001   .     S
Er278     V281    10.001   .     S
Er279     V280    10.001   .     S
V280     V282    10.0   .     S
V280     V281    10.0   .     S
V281     V282    10.0   .     S
Ce283     Ti284    9.999   .     S
Ce283     Ce307    10.002   1_554     S
Ce283     Ce409    10.002   .     S
Ti284     Ti286    10.0   .     S
Ti284     Er297    9.999   .     S
Ce285     Ti286    9.999   .     S
Ti286     Er297    9.999   .     S
Ti287     Ce288    9.999   .     S
Ti287     Ti290    10.0   .     S
Ti287     Er295    9.999   .     S
Ce289     S40    10.001   1_565     S
Ce289     Ce273    10.002   1_565     S
Ce289     Ti290    9.999   .     S
Ce289     Ce573    10.002   .     S
Ti290     Er295    9.999   .     S
Ti291     Ce292    9.999   .     S
Ti291     Ti294    10.0   .     S
Ti291     Er296    9.999   .     S
Ce292     Ce301    10.002   1_554     S
Ce292     Ce418    10.002   .     S
Ce293     S39    10.001   1_565     S
Ce293     Ce268    10.002   1_565     S
Ce293     Ti294    9.999   .     S
Ce293     Ce579    10.002   .     S
Ti294     Er296    9.999   .     S
Er295     V299    10.001   .     S
Er296     V298    10.001   .     S
Er297     V300    10.001   .     S
V298     V300    10.0   .     S
V298     V299    10.0   .     S
V299     V300    10.0   .     S
Ce301     S1    10.001   1_556     S
Ce301     Ce292    10.002   1_556     S
Ce301     Ti302    9.999   .     S
Ce301     Ce445    10.002   .     S
Ti302     Ti304    10.0   .     S
Ti302     Er318    9.999   .     S
Ce303     S5    10.001   1_565     S
Ce303     Ti304    9.999   .     S
Ce303     Ce324    10.002   1_565     S
Ce303     Ce517    10.002   .     S
Ti304     Er318    9.999   .     S
Ti305     Ce306    9.999   .     S
Ti305     Ti308    10.0   .     S
Ti305     Er313    9.999   .     S
Ce307     S2    10.001   1_556     S
Ce307     Ce283    10.002   1_556     S
Ce307     Ti308    9.999   .     S
Ce307     Ce451    10.002   .     S
Ti308     Er313    9.999   .     S
Ti309     Ce310    9.999   .     S
Ti309     Ti312    10.0   .     S
Ti309     Er314    9.999   .     S
Ce311     S6    10.001   1_565     S
Ce311     Ti312    9.999   .     S
Ce311     Ce319    10.002   1_565     S
Ce311     Ce523    10.002   .     S
Ti312     Er314    9.999   .     S
Er313     V317    10.001   .     S
Er314     V316    10.001   .     S
V315     V317    10.0   .     S
V315     V316    10.0   .     S
V315     Er318    10.001   .     S
V316     V317    10.0   .     S
Ce319     Ti320    9.999   .     S
Ce319     Ce311    10.002   1_545     S
Ce319     Ce481    10.002   .     S
Ti320     Ti322    10.0   .     S
Ti320     Er333    9.999   .     S
Ce321     Ti322    9.999   .     S
Ti322     Er333    9.999   .     S
Ti323     Ce324    9.999   .     S
Ti323     Ti326    10.0   .     S
Ti323     Er332    9.999   .     S
Ce324     Ce303    10.002   1_545     S
Ce324     Ce490    10.002   .     S
Ce325     S13    10.001   1_556     S
Ce325     Ce266    10.002   1_556     S
Ce325     Ti326    9.999   .     S
Ce325     Ce397    10.002   .     S
Ti326     Er332    9.999   .     S
Ti327     Ce328    9.999   .     S
Ti327     Ti330    10.0   .     S
Ti327     Er331    9.999   .     S
Ce329     S14    10.001   1_556     S
Ce329     Ce269    10.002   1_556     S
Ce329     Ti330    9.999   .     S
Ce329     Ce393    10.002   .     S
Ti330     Er331    9.999   .     S
Er331     V335    10.001   .     S
Er332     V334    10.001   .     S
Er333     V336    10.001   .     S
V334     V336    10.0   .     S
V334     V335    10.0   .     S
V335     V336    10.0   .     S
Ti337     Ce338    9.999   .     S
Ti337     Ti339    10.0   .     S
Ti337     Er351    9.999   .     S
Ce338     Ce411    10.002   .     S
Ti339     Ce340    9.999   .     S
Ti339     Er351    9.999   .     S
Ce340     Ce393    10.002   1_554     S
Ti341     Ce342    9.999   .     S
Ti341     Ti344    10.0   .     S
Ti341     Er350    9.999   .     S
Ce342     Ce414    10.002   .     S
Ce343     S29    10.001   1_655     S
Ce343     Ti344    9.999   .     S
Ce343     Ce362    10.002   1_655     S
Ce343     Ce559    10.002   .     S
Ti344     Er350    9.999   .     S
Ti345     Ce346    9.999   .     S
Ti345     Ti348    10.0   .     S
Ti345     Er349    9.999   .     S
Ce346     Ce397    10.002   1_554     S
Ce347     S30    10.001   1_655     S
Ce347     Ti348    9.999   .     S
Ce347     Ce364    10.002   1_655     S
Ce347     Ce563    10.002   .     S
Ti348     Er349    9.999   .     S
Er349     V352    10.001   .     S
Er350     V353    10.001   .     S
Er351     V354    10.001   .     S
V352     V353    10.0   .     S
V352     V354    10.0   .     S
V353     V354    10.0   .     S
Ti355     Ce356    9.999   .     S
Ti355     Ti357    10.0   .     S
Ti355     Er368    9.999   .     S
Ce356     Ce379    10.002   1_554     S
Ti357     Ce358    9.999   .     S
Ti357     Er368    9.999   .     S
Ce358     Ce433    10.002   .     S
Ti359     Ce360    9.999   .     S
Ti359     Ti361    10.0   .     S
Ti359     Er369    9.999   .     S
Ce360     Ce437    10.002   .     S
Ti361     Ce362    9.999   .     S
Ti361     Er369    9.999   .     S
Ce362     Ce343    10.002   1_455     S
Ce362     Ce594    10.002   .     S
Ti363     Ce364    9.999   .     S
Ti363     Ti365    10.0   .     S
Ti363     Er367    9.999   .     S
Ce364     Ce347    10.002   1_455     S
Ce364     Ce600    10.002   .     S
Ti365     Ce366    9.999   .     S
Ti365     Er367    9.999   .     S
Ce366     Ce383    10.002   1_554     S
Er367     V370    10.001   .     S
Er368     V372    10.001   .     S
Er369     V371    10.001   .     S
V370     V372    10.0   .     S
V370     V371    10.0   .     S
V371     V372    10.0   .     S
Ti373     Ce374    9.999   .     S
Ti373     Ti375    10.0   .     S
Ti373     Er387    9.999   .     S
Ce374     Ce401    10.002   1_455     S
Ce374     Ce507    10.002   .     S
Ti375     Ce376    9.999   .     S
Ti375     Er387    9.999   .     S
Ce376     Ce465    10.002   .     S
Ti377     Ce378    9.999   .     S
Ti377     Ti380    10.0   .     S
Ti377     Er386    9.999   .     S
Ce378     Ce472    10.002   .     S
Ce379     S27    10.001   1_556     S
Ce379     Ce356    10.002   1_556     S
Ce379     Ti380    9.999   .     S
Ti380     Er386    9.999   .     S
Ti381     Ce382    9.999   .     S
Ti381     Ti384    10.0   .     S
Ti381     Er385    9.999   .     S
Ce382     Ce395    10.002   1_455     S
Ce382     Ce500    10.002   .     S
Ce383     S28    10.001   1_556     S
Ce383     Ce366    10.002   1_556     S
Ce383     Ti384    9.999   .     S
Ti384     Er385    9.999   .     S
Er385     V388    10.001   .     S
Er386     V389    10.001   .     S
Er387     V390    10.001   .     S
V388     V390    10.0   .     S
V388     V389    10.0   .     S
V389     V390    10.0   .     S
Ti391     Ce392    9.999   .     S
Ti391     Ti394    10.0   .     S
Ti391     Er404    9.999   .     S
Ce392     Ce450    10.002   .     S
Ce393     S14    10.001   1_556     S
Ce393     Ce340    10.002   1_556     S
Ce393     Ti394    9.999   .     S
Ti394     Er404    9.999   .     S
Ce395     S47    10.001   1_655     S
Ce395     Ce382    10.002   1_655     S
Ce395     Ti396    9.999   .     S
Ce395     Ce491    10.002   .     S
Ti396     Ti398    10.0   .     S
Ti396     Er403    9.999   .     S
Ce397     S13    10.001   1_556     S
Ce397     Ce346    10.002   1_556     S
Ce397     Ti398    9.999   .     S
Ti398     Er403    9.999   .     S
Ti399     Ce400    9.999   .     S
Ti399     Ti402    10.0   .     S
Ti399     Er408    9.999   .     S
Ce400     Ce454    10.002   .     S
Ce401     S48    10.001   1_655     S
Ce401     Ce374    10.002   1_655     S
Ce401     Ti402    9.999   .     S
Ce401     Ce487    10.002   .     S
Ti402     Er408    9.999   .     S
Er403     V407    10.001   .     S
Er404     V406    10.001   .     S
V405     V407    10.0   .     S
V405     V406    10.0   .     S
V405     Er408    10.001   .     S
V406     V407    10.0   .     S
Ce409     Ti410    9.999   .     S
Ce409     Ce451    10.002   1_554     S
Ti410     Ti412    10.0   .     S
Ti410     Er423    9.999   .     S
Ce411     Ti412    9.999   .     S
Ti412     Er423    9.999   .     S
Ti413     Ce414    9.999   .     S
Ti413     Ti416    10.0   .     S
Ti413     Er421    9.999   .     S
Ce415     S44    10.001   1_655     S
Ce415     Ti416    9.999   .     S
Ce415     Ce435    10.002   1_655     S
Ce415     Ce577    10.002   .     S
Ti416     Er421    9.999   .     S
Ti417     Ce418    9.999   .     S
Ti417     Ti420    10.0   .     S
Ti417     Er422    9.999   .     S
Ce418     Ce445    10.002   1_554     S
Ce419     S43    10.001   1_655     S
Ce419     Ti420    9.999   .     S
Ce419     Ce428    10.002   1_655     S
Ce419     Ce581    10.002   .     S
Ti420     Er422    9.999   .     S
Er421     V425    10.001   .     S
Er422     V424    10.001   .     S
Er423     V426    10.001   .     S
V424     V426    10.0   .     S
V424     V425    10.0   .     S
V425     V426    10.0   .     S
Ti427     Ce428    9.999   .     S
Ti427     Ti429    10.0   .     S
Ti427     Er441    9.999   .     S
Ce428     Ce419    10.002   1_455     S
Ce428     Ce616    10.002   .     S
Ti429     Ce430    9.999   .     S
Ti429     Er441    9.999   .     S
Ce430     Ce469    10.002   1_554     S
Ce431     Ti432    9.999   .     S
Ce431     Ce473    10.002   1_554     S
Ti432     Ti434    10.0   .     S
Ti432     Er439    9.999   .     S
Ce433     Ti434    9.999   .     S
Ti434     Er439    9.999   .     S
Ce435     Ti436    9.999   .     S
Ce435     Ce415    10.002   1_455     S
Ce435     Ce610    10.002   .     S
Ti436     Ti438    10.0   .     S
Ti436     Er440    9.999   .     S
Ce437     Ti438    9.999   .     S
Ti438     Er440    9.999   .     S
Er439     V444    10.001   .     S
Er440     V443    10.001   .     S
Er441     V442    10.001   .     S
V442     V443    10.0   .     S
V442     V444    10.0   .     S
V443     V444    10.0   .     S
Ce445     S1    10.001   1_556     S
Ce445     Ce418    10.002   1_556     S
Ce445     Ti446    9.999   .     S
Ti446     Ti448    10.0   .     S
Ti446     Er462    9.999   .     S
Ce447     S9    10.001   1_655     S
Ce447     Ti448    9.999   .     S
Ce447     Ce468    10.002   1_655     S
Ce447     Ce519    10.002   .     S
Ti448     Er462    9.999   .     S
Ti449     Ce450    9.999   .     S
Ti449     Ti452    10.0   .     S
Ti449     Er457    9.999   .     S
Ce451     S2    10.001   1_556     S
Ce451     Ce409    10.002   1_556     S
Ce451     Ti452    9.999   .     S
Ti452     Er457    9.999   .     S
Ti453     Ce454    9.999   .     S
Ti453     Ti456    10.0   .     S
Ti453     Er458    9.999   .     S
Ce455     S10    10.001   1_655     S
Ce455     Ti456    9.999   .     S
Ce455     Ce463    10.002   1_655     S
Ce455     Ce527    10.002   .     S
Ti456     Er458    9.999   .     S
Er457     V461    10.001   .     S
Er458     V460    10.001   .     S
V459     V460    10.0   .     S
V459     V461    10.0   .     S
V459     Er462    10.001   .     S
V460     V461    10.0   .     S
Ce463     Ti464    9.999   .     S
Ce463     Ce455    10.002   1_455     S
Ce463     Ce535    10.002   .     S
Ti464     Ti466    10.0   .     S
Ti464     Er477    9.999   .     S
Ce465     Ti466    9.999   .     S
Ti466     Er477    9.999   .     S
Ti467     Ce468    9.999   .     S
Ti467     Ti470    10.0   .     S
Ti467     Er476    9.999   .     S
Ce468     Ce447    10.002   1_455     S
Ce468     Ce544    10.002   .     S
Ce469     S15    10.001   1_556     S
Ce469     Ce430    10.002   1_556     S
Ce469     Ti470    9.999   .     S
Ti470     Er476    9.999   .     S
Ti471     Ce472    9.999   .     S
Ti471     Ti474    10.0   .     S
Ti471     Er475    9.999   .     S
Ce473     S16    10.001   1_556     S
Ce473     Ce431    10.002   1_556     S
Ce473     Ti474    9.999   .     S
Ti474     Er475    9.999   .     S
Er475     V479    10.001   .     S
Er476     V478    10.001   .     S
Er477     V480    10.001   .     S
V478     V480    10.0   .     S
V478     V479    10.0   .     S
V479     V480    10.0   .     S
Ce481     Ti482    9.999   .     S
Ce481     Ce523    10.002   1_545     S
Ti482     Ti484    10.0   .     S
Ti482     Er495    9.999   .     S
Ce483     Ti484    9.999   .     S
Ce483     Ce556    10.002   .     S
Ti484     Er495    9.999   .     S
Ti485     Ce486    9.999   .     S
Ti485     Ti488    10.0   .     S
Ti485     Er493    9.999   .     S
Ce486     Ce558    10.002   .     S
Ce487     S48    10.001   1_655     S
Ce487     Ti488    9.999   .     S
Ce487     Ce507    10.002   1_655     S
Ti488     Er493    9.999   .     S
Ti489     Ce490    9.999   .     S
Ti489     Ti492    10.0   .     S
Ti489     Er494    9.999   .     S
Ce490     Ce517    10.002   1_545     S
Ce491     S47    10.001   1_655     S
Ce491     Ti492    9.999   .     S
Ce491     Ce500    10.002   1_655     S
Ti492     Er494    9.999   .     S
Er493     V497    10.001   .     S
Er494     V496    10.001   .     S
Er495     V498    10.001   .     S
V496     V498    10.0   .     S
V496     V497    10.0   .     S
V497     V498    10.0   .     S
Ti499     Ce500    9.999   .     S
Ti499     Ti501    10.0   .     S
Ti499     Er513    9.999   .     S
Ce500     Ce491    10.002   1_455     S
Ti501     Ce502    9.999   .     S
Ti501     Er513    9.999   .     S
Ce502     Ce545    10.002   1_545     S
Ce503     Ti504    9.999   .     S
Ce503     Ce541    10.002   1_545     S
Ti504     Ti506    10.0   .     S
Ti504     Er511    9.999   .     S
Ce505     Ti506    9.999   .     S
Ce505     Ce590    10.002   .     S
Ti506     Er511    9.999   .     S
Ce507     Ti508    9.999   .     S
Ce507     Ce487    10.002   1_455     S
Ti508     Ti510    10.0   .     S
Ti508     Er512    9.999   .     S
Ce509     Ti510    9.999   .     S
Ce509     Ce596    10.002   .     S
Ti510     Er512    9.999   .     S
Er511     V516    10.001   .     S
Er512     V515    10.001   .     S
Er513     V514    10.001   .     S
V514     V516    10.0   .     S
V514     V515    10.0   .     S
V515     V516    10.0   .     S
Ce517     S5    10.001   1_565     S
Ce517     Ce490    10.002   1_565     S
Ce517     Ti518    9.999   .     S
Ti518     Ti520    10.0   .     S
Ti518     Er534    9.999   .     S
Ce519     S9    10.001   1_655     S
Ce519     Ti520    9.999   .     S
Ce519     Ce544    10.002   1_655     S
Ti520     Er534    9.999   .     S
Ti521     Ce522    9.999   .     S
Ti521     Ti524    10.0   .     S
Ti521     Er529    9.999   .     S
Ce522     Ce572    10.002   .     S
Ce523     S6    10.001   1_565     S
Ce523     Ce481    10.002   1_565     S
Ce523     Ti524    9.999   .     S
Ti524     Er529    9.999   .     S
Ti525     Ce526    9.999   .     S
Ti525     Ti528    10.0   .     S
Ti525     Er530    9.999   .     S
Ce526     Ce576    10.002   .     S
Ce527     S10    10.001   1_655     S
Ce527     Ti528    9.999   .     S
Ce527     Ce535    10.002   1_655     S
Ti528     Er530    9.999   .     S
Er529     V533    10.001   .     S
Er530     V532    10.001   .     S
V531     V533    10.0   .     S
V531     V532    10.0   .     S
V531     Er534    10.001   .     S
V532     V533    10.0   .     S
Ce535     Ti536    9.999   .     S
Ce535     Ce527    10.002   1_455     S
Ti536     Ti538    10.0   .     S
Ti536     Er549    9.999   .     S
Ce537     Ti538    9.999   .     S
Ce537     Ce608    10.002   .     S
Ti538     Er549    9.999   .     S
Ti539     Ce540    9.999   .     S
Ti539     Ti542    10.0   .     S
Ti539     Er547    9.999   .     S
Ce540     Ce612    10.002   .     S
Ce541     S38    10.001   1_565     S
Ce541     Ce503    10.002   1_565     S
Ce541     Ti542    9.999   .     S
Ti542     Er547    9.999   .     S
Ti543     Ce544    9.999   .     S
Ti543     Ti546    10.0   .     S
Ti543     Er548    9.999   .     S
Ce544     Ce519    10.002   1_455     S
Ce545     S37    10.001   1_565     S
Ce545     Ce502    10.002   1_565     S
Ce545     Ti546    9.999   .     S
Ti546     Er548    9.999   .     S
Er547     V551    10.001   .     S
Er548     V550    10.001   .     S
Er549     V552    10.001   .     S
V550     V552    10.0   .     S
V550     V551    10.0   .     S
V551     V552    10.0   .     S
Ti553     Ce554    9.999   .     S
Ti553     Ti555    10.0   .     S
Ti553     Er567    9.999   .     S
Ce554     Ce573    10.002   1_545     S
Ti555     Ce556    9.999   .     S
Ti555     Er567    9.999   .     S
Ti557     Ce558    9.999   .     S
Ti557     Ti560    10.0   .     S
Ti557     Er566    9.999   .     S
Ce559     S29    10.001   1_655     S
Ce559     Ti560    9.999   .     S
Ce559     Ce594    10.002   1_655     S
Ti560     Er566    9.999   .     S
Ti561     Ce562    9.999   .     S
Ti561     Ti564    10.0   .     S
Ti561     Er565    9.999   .     S
Ce562     Ce579    10.002   1_545     S
Ce563     S30    10.001   1_655     S
Ce563     Ti564    9.999   .     S
Ce563     Ce600    10.002   1_655     S
Ti564     Er565    9.999   .     S
Er565     V568    10.001   .     S
Er566     V569    10.001   .     S
Er567     V570    10.001   .     S
V568     V570    10.0   .     S
V568     V569    10.0   .     S
V569     V570    10.0   .     S
Ti571     Ce572    9.999   .     S
Ti571     Ti574    10.0   .     S
Ti571     Er584    9.999   .     S
Ce573     S40    10.001   1_565     S
Ce573     Ce554    10.002   1_565     S
Ce573     Ti574    9.999   .     S
Ti574     Er584    9.999   .     S
Ti575     Ce576    9.999   .     S
Ti575     Ti578    10.0   .     S
Ti575     Er585    9.999   .     S
Ce577     S44    10.001   1_655     S
Ce577     Ti578    9.999   .     S
Ce577     Ce610    10.002   1_655     S
Ti578     Er585    9.999   .     S
Ce579     S39    10.001   1_565     S
Ce579     Ce562    10.002   1_565     S
Ce579     Ti580    9.999   .     S
Ti580     Ti582    10.0   .     S
Ti580     Er583    9.999   .     S
Ce581     S43    10.001   1_655     S
Ce581     Ti582    9.999   .     S
Ce581     Ce616    10.002   1_655     S
Ti582     Er583    9.999   .     S
Er583     V588    10.001   .     S
Er584     V587    10.001   .     S
Er585     V586    10.001   .     S
V586     V587    10.0   .     S
V586     V588    10.0   .     S
V587     V588    10.0   .     S
Ti589     Ce590    9.999   .     S
Ti589     Ti591    10.0   .     S
Ti589     Er602    9.999   .     S
Ti591     Ce592    9.999   .     S
Ti591     Er602    9.999   .     S
Ce592     Ce613    10.002   1_545     S
Ti593     Ce594    9.999   .     S
Ti593     Ti595    10.0   .     S
Ti593     Er603    9.999   .     S
Ce594     Ce559    10.002   1_455     S
Ti595     Ce596    9.999   .     S
Ti595     Er603    9.999   .     S
Ti597     Ce598    9.999   .     S
Ti597     Ti599    10.0   .     S
Ti597     Er601    9.999   .     S
Ce598     Ce617    10.002   1_545     S
Ti599     Ce600    9.999   .     S
Ti599     Er601    9.999   .     S
Ce600     Ce563    10.002   1_455     S
Er601     V604    10.001   .     S
Er602     V606    10.001   .     S
Er603     V605    10.001   .     S
V604     V605    10.0   .     S
V604     V606    10.0   .     S
V605     V606    10.0   .     S
Ti607     Ce608    9.999   .     S
Ti607     Ti609    10.0   .     S
Ti607     Er621    9.999   .     S
Ti609     Ce610    9.999   .     S
Ti609     Er621    9.999   .     S
Ce610     Ce577    10.002   1_455     S
Ti611     Ce612    9.999   .     S
Ti611     Ti614    10.0   .     S
Ti611     Er620    9.999   .     S
Ce613     S31    10.001   1_565     S
Ce613     Ce592    10.002   1_565     S
Ce613     Ti614    9.999   .     S
Ti614     Er620    9.999   .     S
Ti615     Ce616    9.999   .     S
Ti615     Ti618    10.0   .     S
Ti615     Er619    9.999   .     S
Ce616     Ce581    10.002   1_455     S
Ce617     S32    10.001   1_565     S
Ce617     Ce598    10.002   1_565     S
Ce617     Ti618    9.999   .     S
Ti618     Er619    9.999   .     S
Er619     V622    10.001   .     S
Er620     V623    10.001   .     S
Er621     V624    10.001   .     S
V622     V623    10.0   .     S
V622     V624    10.0   .     S
V623     V624    10.0   .     S
