data_gee
_audit_creation_date              2020-02-02
_audit_creation_method            'Pymatgen'
_symmetry_space_group_name_H-M    'P1'
_symmetry_Int_Tables_number       1
loop_
_symmetry_equiv_pos_as_xyz
  x,y,z
_cell_length_a                    34.1421
_cell_length_b                    34.1421
_cell_length_c                    34.1421
_cell_angle_alpha                 90.0
_cell_angle_beta                 90.0
_cell_angle_gamma                 90.0
loop_
_atom_site_label
_atom_site_type_symbol
_atom_site_fract_x
_atom_site_fract_y
_atom_site_fract_z
Ti1     Ti     0.5   0.5   0.0
Ti2     Ti     0.5   0.0   0.5
Ti3     Ti     0.0   0.5   0.5
Er4     Er     0.2929   0.2929   0.0
Er5     Er     0.2929   0.7071   0.0
Er6     Er     0.2929   0.0   0.7071
V7     V     0.293   0.0   0.0
Er8     Er     0.2929   0.0   0.2929
Er9     Er     0.7071   0.2929   0.0
Er10     Er     0.0   0.2929   0.7071
V11     V     0.0   0.293   0.0
Er12     Er     0.0   0.2929   0.2929
Er13     Er     0.0   0.7071   0.2929
Er14     Er     0.7071   0.0   0.2929
V15     V     0.0   0.0   0.293
Er16     Er     0.7071   0.7071   0.0
Er17     Er     0.0   0.7071   0.7071
Er18     Er     0.7071   0.0   0.7071
V19     V     0.707   0.0   0.0
V20     V     0.0   0.0   0.707
V21     V     0.0   0.707   0.0
loop_
_geom_bond_atom_site_label_1
_geom_bond_atom_site_label_2
_geom_bond_distance
_geom_bond_site_symmetry_2
_ccdc_geom_bond_type
Ti1     Er4    10.0   .     S
Ti1     Er5    10.0   .     S
Ti1     Er9    10.0   .     S
Ti1     Er16    10.0   .     S
Ti2     Er8    10.0   .     S
Ti2     Er14    10.0   .     S
Ti2     Er6    10.0   .     S
Ti2     Er18    10.0   .     S
Ti3     Er12    10.0   .     S
Ti3     Er13    10.0   .     S
Ti3     Er10    10.0   .     S
Ti3     Er17    10.0   .     S
Er4     V11    10.0   .     S
Er4     V7    10.0   .     S
Er5     V21    10.0   .     S
Er5     V7    10.0   1_565     S
Er6     V20    10.0   .     S
Er6     V7    10.0   1_556     S
V7     Er5    10.0   1_545     S
V7     Er6    10.0   1_554     S
V7     Er8    10.0   .     S
Er8     V15    10.0   .     S
Er9     V19    10.0   .     S
Er9     V11    10.0   1_655     S
Er10     V20    10.0   .     S
Er10     V11    10.0   1_556     S
V11     Er9    10.0   1_455     S
V11     Er10    10.0   1_554     S
V11     Er12    10.0   .     S
Er12     V15    10.0   .     S
Er13     V21    10.0   .     S
Er13     V15    10.0   1_565     S
Er14     V19    10.0   .     S
Er14     V15    10.0   1_655     S
V15     Er13    10.0   1_545     S
V15     Er14    10.0   1_455     S
Er16     V19    10.0   1_565     S
Er16     V21    10.0   1_655     S
Er17     V20    10.0   1_565     S
Er17     V21    10.0   1_556     S
Er18     V19    10.0   1_556     S
Er18     V20    10.0   1_655     S
V19     Er16    10.0   1_545     S
V19     Er18    10.0   1_554     S
V20     Er17    10.0   1_545     S
V20     Er18    10.0   1_455     S
V21     Er16    10.0   1_455     S
V21     Er17    10.0   1_554     S
