data_hbm
_audit_creation_date              2020-02-02
_audit_creation_method            'Pymatgen'
_symmetry_space_group_name_H-M    'P1'
_symmetry_Int_Tables_number       1
loop_
_symmetry_equiv_pos_as_xyz
  x,y,z
_cell_length_a                    36.9465
_cell_length_b                    36.9465
_cell_length_c                    15.374
_cell_angle_alpha                 90.0
_cell_angle_beta                 90.0
_cell_angle_gamma                 90.0
loop_
_atom_site_label
_atom_site_type_symbol
_atom_site_fract_x
_atom_site_fract_y
_atom_site_fract_z
Er1     Er     0.3645   0.0   0.5
V2     V     0.3646   0.1729   0.0
V3     V     0.3646   0.8271   0.0
Er4     Er     0.6355   0.0   0.5
V5     V     0.6354   0.1729   0.0
V6     V     0.6354   0.8271   0.0
Er7     Er     0.0   0.3645   0.5
V8     V     0.1729   0.3646   0.0
V9     V     0.8271   0.3646   0.0
Er10     Er     0.0   0.6355   0.5
V11     V     0.1729   0.6354   0.0
V12     V     0.8271   0.6354   0.0
loop_
_geom_bond_atom_site_label_1
_geom_bond_atom_site_label_2
_geom_bond_distance
_geom_bond_site_symmetry_2
_ccdc_geom_bond_type
Er1     V2    9.995   .     S
Er1     V2    9.995   1_556     S
Er1     V3    9.995   1_545     S
Er1     V3    9.995   1_546     S
V2     Er1    9.995   1_554     S
V2     V5    10.002   .     S
V2     V8    10.018   .     S
V3     Er1    9.995   1_565     S
V3     Er1    9.995   1_564     S
V3     V6    10.002   .     S
V3     V11    10.018   .     S
Er4     V5    9.995   .     S
Er4     V5    9.995   1_556     S
Er4     V6    9.995   1_546     S
Er4     V6    9.995   1_545     S
V5     Er4    9.995   1_554     S
V5     V9    10.018   .     S
V6     Er4    9.995   1_564     S
V6     Er4    9.995   1_565     S
V6     V12    10.018   .     S
Er7     V8    9.995   .     S
Er7     V8    9.995   1_556     S
Er7     V9    9.995   1_456     S
Er7     V9    9.995   1_455     S
V8     Er7    9.995   1_554     S
V8     V11    10.002   .     S
V9     Er7    9.995   1_654     S
V9     Er7    9.995   1_655     S
V9     V12    10.002   .     S
Er10     V11    9.995   .     S
Er10     V11    9.995   1_556     S
Er10     V12    9.995   1_455     S
Er10     V12    9.995   1_456     S
V11     Er10    9.995   1_554     S
V12     Er10    9.995   1_655     S
V12     Er10    9.995   1_654     S
