data_hck
_audit_creation_date              2020-02-02
_audit_creation_method            'Pymatgen'
_symmetry_space_group_name_H-M    'P1'
_symmetry_Int_Tables_number       1
loop_
_symmetry_equiv_pos_as_xyz
  x,y,z
_cell_length_a                    18.321
_cell_length_b                    28.0213
_cell_length_c                    34.3241
_cell_angle_alpha                 90.0
_cell_angle_beta                 102.4579
_cell_angle_gamma                 90.0
loop_
_atom_site_label
_atom_site_type_symbol
_atom_site_fract_x
_atom_site_fract_y
_atom_site_fract_z
Er1     Er     0.1995   0.3216   0.625
Er2     Er     0.1995   0.6784   0.625
Er3     Er     0.8005   0.3216   0.375
Er4     Er     0.8005   0.6784   0.375
V5     V     0.4016   0.6784   0.125
V6     V     0.0984   0.8216   0.875
V7     V     0.5984   0.6784   0.875
V8     V     0.9016   0.8216   0.125
V9     V     0.5984   0.3216   0.875
V10     V     0.9016   0.1784   0.125
V11     V     0.0984   0.1784   0.875
V12     V     0.4016   0.3216   0.125
Er13     Er     0.6995   0.8216   0.625
Er14     Er     0.6995   0.1784   0.625
Er15     Er     0.3005   0.8216   0.375
Er16     Er     0.3005   0.1784   0.375
loop_
_geom_bond_atom_site_label_1
_geom_bond_atom_site_label_2
_geom_bond_distance
_geom_bond_site_symmetry_2
_ccdc_geom_bond_type
Er1     Er2    10.0   .     S
Er1     Er3    10.0   1_455     S
Er1     Er14    10.0   1_455     S
Er1     V11    10.0   .     S
Er1     V9    10.0   .     S
Er1     Er14    10.0   .     S
Er1     Er16    10.0   .     S
Er2     Er4    10.0   1_455     S
Er2     V6    10.0   .     S
Er2     V7    10.0   .     S
Er2     Er13    10.0   .     S
Er2     Er13    10.0   1_455     S
Er2     Er15    10.0   .     S
Er3     Er4    10.0   .     S
Er3     Er1    10.0   1_655     S
Er3     V10    10.0   .     S
Er3     Er16    10.0   1_655     S
Er3     V12    10.0   .     S
Er3     Er16    10.0   .     S
Er3     Er14    10.0   .     S
Er4     Er2    10.0   1_655     S
Er4     V5    10.0   .     S
Er4     Er15    10.0   .     S
Er4     Er15    10.0   1_655     S
Er4     V8    10.0   .     S
Er4     Er13    10.0   .     S
V5     Er15    10.0   .     S
V5     V6    10.0   1_554     S
V5     V8    10.0   .     S
V5     V7    10.0   1_554     S
V5     V8    10.0   1_455     S
V5     V12    10.0   .     S
V6     V5    10.0   1_556     S
V6     V7    10.0   .     S
V6     Er13    10.0   1_455     S
V6     V7    10.0   1_455     S
V6     V8    10.0   1_456     S
V6     V11    10.0   1_565     S
V7     V5    10.0   1_556     S
V7     V6    10.0   1_655     S
V7     Er13    10.0   .     S
V7     V8    10.0   1_556     S
V7     V9    10.0   .     S
V8     Er15    10.0   1_655     S
V8     V5    10.0   1_655     S
V8     V6    10.0   1_654     S
V8     V7    10.0   1_554     S
V8     V10    10.0   1_565     S
V9     Er14    10.0   .     S
V9     V10    10.0   1_556     S
V9     V11    10.0   1_655     S
V9     V11    10.0   .     S
V9     V12    10.0   1_556     S
V10     V9    10.0   1_554     S
V10     Er16    10.0   1_655     S
V10     V12    10.0   1_655     S
V10     V11    10.0   1_654     S
V10     V12    10.0   .     S
V10     V8    10.0   1_545     S
V11     Er14    10.0   1_455     S
V11     V9    10.0   1_455     S
V11     V10    10.0   1_456     S
V11     V12    10.0   1_556     S
V11     V6    10.0   1_545     S
V12     V10    10.0   1_455     S
V12     Er16    10.0   .     S
V12     V11    10.0   1_554     S
V12     V9    10.0   1_554     S
Er13     V6    10.0   1_655     S
Er13     Er2    10.0   1_655     S
Er13     Er14    10.0   1_565     S
Er13     Er15    10.0   .     S
Er14     V11    10.0   1_655     S
Er14     Er1    10.0   1_655     S
Er14     Er13    10.0   1_545     S
Er14     Er16    10.0   .     S
Er15     V8    10.0   1_455     S
Er15     Er4    10.0   1_455     S
Er15     Er16    10.0   1_565     S
Er16     V10    10.0   1_455     S
Er16     Er3    10.0   1_455     S
Er16     Er15    10.0   1_545     S
