data_hed
_audit_creation_date              2020-02-02
_audit_creation_method            'Pymatgen'
_symmetry_space_group_name_H-M    'P1'
_symmetry_Int_Tables_number       1
loop_
_symmetry_equiv_pos_as_xyz
  x,y,z
_cell_length_a                    129.2063
_cell_length_b                    129.2063
_cell_length_c                    129.2063
_cell_angle_alpha                 90.0
_cell_angle_beta                 90.0
_cell_angle_gamma                 90.0
loop_
_atom_site_label
_atom_site_type_symbol
_atom_site_fract_x
_atom_site_fract_y
_atom_site_fract_z
V1     V     0.9968   0.6063   0.1985
V2     V     0.9968   0.5515   0.1437
V3     V     0.0515   0.6063   0.2532
V4     V     0.1063   0.5515   0.2532
V5     V     0.0515   0.4968   0.1437
V6     V     0.1063   0.4968   0.1985
Er7     Er     0.5262   0.9592   0.081
Er8     Er     0.4738   0.919   0.0408
Er9     Er     0.4592   0.0262   0.081
Er10     Er     0.419   0.9738   0.0408
Er11     Er     0.4592   0.081   0.0262
Er12     Er     0.419   0.0408   0.9738
Er13     Er     0.5262   0.081   0.9592
Er14     Er     0.4738   0.0408   0.919
Er15     Er     0.581   0.9592   0.0262
Er16     Er     0.5408   0.919   0.9738
Er17     Er     0.581   0.0262   0.9592
Er18     Er     0.5408   0.9738   0.919
V19     V     0.9485   0.3563   0.0032
V20     V     0.8937   0.3015   0.0032
V21     V     0.0032   0.3563   0.9485
V22     V     0.0032   0.3015   0.8937
V23     V     0.9485   0.2468   0.8937
V24     V     0.8937   0.2468   0.9485
Er25     Er     0.9592   0.5262   0.081
Er26     Er     0.919   0.4738   0.0408
Er27     Er     0.0262   0.4592   0.081
Er28     Er     0.9738   0.419   0.0408
Er29     Er     0.081   0.4592   0.0262
Er30     Er     0.0408   0.419   0.9738
Er31     Er     0.081   0.5262   0.9592
Er32     Er     0.0408   0.4738   0.919
Er33     Er     0.9592   0.581   0.0262
Er34     Er     0.919   0.5408   0.9738
Er35     Er     0.0262   0.581   0.9592
Er36     Er     0.9738   0.5408   0.919
V37     V     0.4968   0.1985   0.1063
V38     V     0.4968   0.1437   0.0515
V39     V     0.6063   0.1985   0.9968
V40     V     0.5515   0.1437   0.9968
V41     V     0.6063   0.2532   0.0515
V42     V     0.5515   0.2532   0.1063
V43     V     0.5515   0.4968   0.6437
V44     V     0.6063   0.4968   0.6985
V45     V     0.5515   0.6063   0.7532
V46     V     0.6063   0.5515   0.7532
V47     V     0.4968   0.5515   0.6437
V48     V     0.4968   0.6063   0.6985
V49     V     0.6063   0.7532   0.5515
V50     V     0.5515   0.7532   0.6063
V51     V     0.4968   0.6985   0.6063
V52     V     0.4968   0.6437   0.5515
V53     V     0.5515   0.6437   0.4968
V54     V     0.6063   0.6985   0.4968
V55     V     0.3015   0.8937   0.0032
V56     V     0.3563   0.9485   0.0032
V57     V     0.3015   0.0032   0.8937
V58     V     0.3563   0.0032   0.9485
V59     V     0.2468   0.9485   0.8937
V60     V     0.2468   0.8937   0.9485
Er61     Er     0.2238   0.9592   0.669
Er62     Er     0.2762   0.919   0.7092
Er63     Er     0.169   0.9592   0.7238
Er64     Er     0.2092   0.919   0.7762
Er65     Er     0.169   0.0262   0.7908
Er66     Er     0.2092   0.9738   0.831
Er67     Er     0.2237   0.081   0.7908
Er68     Er     0.2763   0.0408   0.831
Er69     Er     0.2908   0.081   0.7238
Er70     Er     0.331   0.0408   0.7762
Er71     Er     0.331   0.9738   0.7092
Er72     Er     0.2908   0.0262   0.669
V73     V     0.1985   0.2532   0.6437
V74     V     0.1437   0.2532   0.6985
V75     V     0.1437   0.1985   0.7532
V76     V     0.1985   0.1437   0.7532
V77     V     0.2532   0.1985   0.6437
V78     V     0.2532   0.1437   0.6985
V79     V     0.9968   0.0515   0.6437
V80     V     0.9968   0.1063   0.6985
V81     V     0.0515   0.1063   0.7532
V82     V     0.1063   0.0515   0.7532
V83     V     0.1063   0.9968   0.6985
V84     V     0.0515   0.9968   0.6437
V85     V     0.9485   0.5032   0.8563
V86     V     0.8937   0.5032   0.8015
V87     V     0.0032   0.3937   0.8015
V88     V     0.0032   0.4485   0.8563
V89     V     0.9485   0.3937   0.7468
V90     V     0.8937   0.4485   0.7468
Er91     Er     0.9592   0.2238   0.669
Er92     Er     0.919   0.2762   0.7092
Er93     Er     0.9738   0.331   0.7092
Er94     Er     0.0262   0.2908   0.669
Er95     Er     0.9592   0.169   0.7238
Er96     Er     0.919   0.2092   0.7762
Er97     Er     0.0408   0.331   0.7762
Er98     Er     0.081   0.2908   0.7238
Er99     Er     0.0262   0.169   0.7908
Er100     Er     0.9738   0.2092   0.831
Er101     Er     0.081   0.2238   0.7908
Er102     Er     0.0408   0.2762   0.831
V103     V     0.5032   0.9485   0.8563
V104     V     0.5032   0.8937   0.8015
V105     V     0.3937   0.0032   0.8015
V106     V     0.4485   0.0032   0.8563
V107     V     0.4485   0.8937   0.7468
V108     V     0.3937   0.9485   0.7468
V109     V     0.7532   0.1437   0.1985
V110     V     0.7532   0.1985   0.1437
V111     V     0.6437   0.2532   0.1985
V112     V     0.6985   0.2532   0.1437
V113     V     0.6437   0.1985   0.2532
V114     V     0.6985   0.1437   0.2532
V115     V     0.8015   0.3937   0.0032
V116     V     0.8563   0.4485   0.0032
V117     V     0.7468   0.4485   0.8937
V118     V     0.7468   0.3937   0.9485
V119     V     0.8015   0.5032   0.8937
V120     V     0.8563   0.5032   0.9485
Er121     Er     0.7908   0.169   0.0262
Er122     Er     0.831   0.2092   0.9738
Er123     Er     0.7908   0.2238   0.081
Er124     Er     0.831   0.2762   0.0408
Er125     Er     0.7238   0.2908   0.081
Er126     Er     0.7762   0.331   0.0408
Er127     Er     0.7092   0.331   0.9738
Er128     Er     0.669   0.2908   0.0262
Er129     Er     0.669   0.2238   0.9592
Er130     Er     0.7092   0.2762   0.919
Er131     Er     0.7238   0.169   0.9592
Er132     Er     0.7762   0.2092   0.919
V133     V     0.8563   0.0032   0.4485
V134     V     0.8015   0.0032   0.3937
V135     V     0.7468   0.9485   0.3937
V136     V     0.7468   0.8937   0.4485
V137     V     0.8015   0.8937   0.5032
V138     V     0.8563   0.9485   0.5032
V139     V     0.4968   0.1063   0.1985
V140     V     0.4968   0.0515   0.1437
V141     V     0.6063   0.9968   0.1985
V142     V     0.5515   0.9968   0.1437
V143     V     0.6063   0.0515   0.2532
V144     V     0.5515   0.1063   0.2532
Er145     Er     0.7908   0.081   0.2238
Er146     Er     0.831   0.0408   0.2762
Er147     Er     0.7092   0.919   0.2762
Er148     Er     0.669   0.9592   0.2237
Er149     Er     0.7092   0.9738   0.331
Er150     Er     0.669   0.0262   0.2908
Er151     Er     0.7238   0.081   0.2908
Er152     Er     0.7762   0.0408   0.331
Er153     Er     0.7908   0.0262   0.169
Er154     Er     0.831   0.9738   0.2092
Er155     Er     0.7238   0.9592   0.169
Er156     Er     0.7762   0.919   0.2092
V157     V     0.6437   0.9968   0.0515
V158     V     0.6985   0.9968   0.1063
V159     V     0.7532   0.1063   0.0515
V160     V     0.7532   0.0515   0.1063
V161     V     0.6985   0.1063   0.9968
V162     V     0.6437   0.0515   0.9968
Er163     Er     0.831   0.4738   0.7092
Er164     Er     0.7908   0.5262   0.669
Er165     Er     0.7762   0.419   0.7092
Er166     Er     0.7238   0.4592   0.669
Er167     Er     0.7092   0.419   0.7762
Er168     Er     0.669   0.4592   0.7238
Er169     Er     0.669   0.5262   0.7908
Er170     Er     0.7092   0.4738   0.831
Er171     Er     0.7762   0.5408   0.831
Er172     Er     0.7238   0.581   0.7908
Er173     Er     0.7908   0.581   0.7238
Er174     Er     0.831   0.5408   0.7762
V175     V     0.8015   0.3563   0.7468
V176     V     0.8563   0.3015   0.7468
V177     V     0.7468   0.3563   0.8015
V178     V     0.7468   0.3015   0.8563
V179     V     0.8015   0.2468   0.8563
V180     V     0.8563   0.2468   0.8015
V181     V     0.3937   0.8015   0.0032
V182     V     0.4485   0.8563   0.0032
V183     V     0.3937   0.7468   0.9485
V184     V     0.4485   0.7468   0.8937
V185     V     0.5032   0.8015   0.8937
V186     V     0.5032   0.8563   0.9485
Er187     Er     0.419   0.7092   0.7762
Er188     Er     0.4592   0.669   0.7238
Er189     Er     0.419   0.7762   0.7092
Er190     Er     0.4592   0.7238   0.669
Er191     Er     0.5262   0.669   0.7908
Er192     Er     0.4738   0.7092   0.831
Er193     Er     0.5262   0.7908   0.669
Er194     Er     0.4738   0.831   0.7092
Er195     Er     0.5408   0.831   0.7762
Er196     Er     0.581   0.7908   0.7238
Er197     Er     0.581   0.7238   0.7908
Er198     Er     0.5408   0.7762   0.831
V199     V     0.1985   0.4968   0.1063
V200     V     0.1437   0.4968   0.0515
V201     V     0.1437   0.5515   0.9968
V202     V     0.1985   0.6063   0.9968
V203     V     0.2532   0.6063   0.0515
V204     V     0.2532   0.5515   0.1063
V205     V     0.9968   0.6437   0.0515
V206     V     0.9968   0.6985   0.1063
V207     V     0.1063   0.7532   0.0515
V208     V     0.0515   0.7532   0.1063
V209     V     0.0515   0.6437   0.9968
V210     V     0.1063   0.6985   0.9968
V211     V     0.3015   0.8563   0.7468
V212     V     0.3563   0.8015   0.7468
V213     V     0.3563   0.7468   0.8015
V214     V     0.3015   0.7468   0.8563
V215     V     0.2468   0.8015   0.8563
V216     V     0.2468   0.8563   0.8015
Er217     Er     0.2238   0.7908   0.081
Er218     Er     0.2762   0.831   0.0408
Er219     Er     0.169   0.7908   0.0262
Er220     Er     0.2092   0.831   0.9738
Er221     Er     0.169   0.7238   0.9592
Er222     Er     0.2092   0.7762   0.919
Er223     Er     0.331   0.7762   0.0408
Er224     Er     0.2908   0.7238   0.081
Er225     Er     0.2237   0.669   0.9592
Er226     Er     0.2763   0.7092   0.919
Er227     Er     0.331   0.7092   0.9738
Er228     Er     0.2908   0.669   0.0262
V229     V     0.6437   0.4968   0.5515
V230     V     0.6985   0.4968   0.6063
V231     V     0.6985   0.6063   0.4968
V232     V     0.6437   0.5515   0.4968
V233     V     0.7532   0.5515   0.6063
V234     V     0.7532   0.6063   0.5515
V235     V     0.6985   0.6437   0.7532
V236     V     0.6437   0.6985   0.7532
V237     V     0.6437   0.7532   0.6985
V238     V     0.6985   0.7532   0.6437
V239     V     0.7532   0.6985   0.6437
V240     V     0.7532   0.6437   0.6985
V241     V     0.8015   0.8563   0.2468
V242     V     0.8563   0.8015   0.2468
V243     V     0.7468   0.8015   0.3563
V244     V     0.7468   0.8563   0.3015
V245     V     0.8015   0.7468   0.3563
V246     V     0.8563   0.7468   0.3015
Er247     Er     0.831   0.7762   0.5408
Er248     Er     0.7908   0.7238   0.581
Er249     Er     0.7238   0.7908   0.581
Er250     Er     0.7762   0.831   0.5408
Er251     Er     0.7092   0.831   0.4738
Er252     Er     0.669   0.7908   0.5262
Er253     Er     0.7092   0.7762   0.419
Er254     Er     0.669   0.7238   0.4592
Er255     Er     0.831   0.7092   0.4738
Er256     Er     0.7908   0.669   0.5262
Er257     Er     0.7762   0.7092   0.419
Er258     Er     0.7238   0.669   0.4592
Er259     Er     0.081   0.9592   0.5262
Er260     Er     0.0408   0.919   0.4738
Er261     Er     0.081   0.0262   0.4592
Er262     Er     0.0408   0.9738   0.419
Er263     Er     0.0262   0.081   0.4592
Er264     Er     0.9738   0.0408   0.419
Er265     Er     0.0262   0.9592   0.581
Er266     Er     0.9738   0.919   0.5408
Er267     Er     0.9592   0.0262   0.581
Er268     Er     0.919   0.9738   0.5408
Er269     Er     0.9592   0.081   0.5262
Er270     Er     0.919   0.0408   0.4738
V271     V     0.0515   0.1437   0.4968
V272     V     0.1063   0.1985   0.4968
V273     V     0.9968   0.1985   0.6063
V274     V     0.9968   0.1437   0.5515
V275     V     0.0515   0.2532   0.6063
V276     V     0.1063   0.2532   0.5515
V277     V     0.3015   0.3563   0.2468
V278     V     0.3563   0.3015   0.2468
V279     V     0.2468   0.3015   0.3563
V280     V     0.2468   0.3563   0.3015
V281     V     0.3015   0.2468   0.3563
V282     V     0.3563   0.2468   0.3015
V283     V     0.8937   0.0032   0.3015
V284     V     0.9485   0.0032   0.3563
V285     V     0.0032   0.8937   0.3015
V286     V     0.0032   0.9485   0.3563
V287     V     0.9485   0.8937   0.2468
V288     V     0.8937   0.9485   0.2468
V289     V     0.1437   0.0515   0.4968
V290     V     0.1985   0.1063   0.4968
V291     V     0.2532   0.0515   0.6063
V292     V     0.2532   0.1063   0.5515
V293     V     0.1985   0.9968   0.6063
V294     V     0.1437   0.9968   0.5515
V295     V     0.3015   0.3937   0.5032
V296     V     0.3563   0.4485   0.5032
V297     V     0.2468   0.4485   0.3937
V298     V     0.2468   0.3937   0.4485
V299     V     0.3563   0.5032   0.4485
V300     V     0.3015   0.5032   0.3937
Er301     Er     0.331   0.4738   0.2092
Er302     Er     0.2908   0.5262   0.169
Er303     Er     0.2762   0.419   0.2092
Er304     Er     0.2238   0.4592   0.169
Er305     Er     0.2092   0.4738   0.331
Er306     Er     0.169   0.5262   0.2908
Er307     Er     0.331   0.5408   0.2762
Er308     Er     0.2908   0.581   0.2238
Er309     Er     0.2763   0.5408   0.331
Er310     Er     0.2237   0.581   0.2908
Er311     Er     0.2092   0.419   0.2762
Er312     Er     0.169   0.4592   0.2237
V313     V     0.3937   0.5032   0.3015
V314     V     0.4485   0.5032   0.3563
V315     V     0.4485   0.3937   0.2468
V316     V     0.3937   0.4485   0.2468
V317     V     0.5032   0.4485   0.3563
V318     V     0.5032   0.3937   0.3015
Er319     Er     0.5262   0.169   0.2908
Er320     Er     0.4738   0.2092   0.331
Er321     Er     0.5408   0.2762   0.331
Er322     Er     0.581   0.2238   0.2908
Er323     Er     0.581   0.2908   0.2238
Er324     Er     0.5408   0.331   0.2763
Er325     Er     0.4592   0.169   0.2238
Er326     Er     0.419   0.2092   0.2762
Er327     Er     0.4592   0.2238   0.169
Er328     Er     0.419   0.2762   0.2092
Er329     Er     0.5262   0.2908   0.169
Er330     Er     0.4738   0.331   0.2092
Er331     Er     0.4738   0.5408   0.419
Er332     Er     0.5262   0.581   0.4592
Er333     Er     0.419   0.5408   0.4738
Er334     Er     0.4592   0.581   0.5262
Er335     Er     0.419   0.4738   0.5408
Er336     Er     0.4592   0.5262   0.581
Er337     Er     0.4738   0.419   0.5408
Er338     Er     0.5262   0.4592   0.581
Er339     Er     0.5408   0.4738   0.419
Er340     Er     0.581   0.5262   0.4592
Er341     Er     0.5408   0.419   0.4738
Er342     Er     0.581   0.4592   0.5262
V343     V     0.4485   0.2468   0.3937
V344     V     0.3937   0.2468   0.4485
V345     V     0.5032   0.3563   0.4485
V346     V     0.5032   0.3015   0.3937
V347     V     0.4485   0.3563   0.5032
V348     V     0.3937   0.3015   0.5032
Er349     Er     0.169   0.2908   0.5262
Er350     Er     0.2092   0.331   0.4738
Er351     Er     0.2762   0.331   0.5408
Er352     Er     0.2238   0.2908   0.581
Er353     Er     0.331   0.2762   0.5408
Er354     Er     0.2908   0.2238   0.581
Er355     Er     0.331   0.2092   0.4738
Er356     Er     0.2908   0.169   0.5262
Er357     Er     0.169   0.2238   0.4592
Er358     Er     0.2092   0.2762   0.419
Er359     Er     0.2237   0.169   0.4592
Er360     Er     0.2763   0.2092   0.419
V361     V     0.9485   0.8563   0.5032
V362     V     0.8937   0.8015   0.5032
V363     V     0.0032   0.8015   0.3937
V364     V     0.0032   0.8563   0.4485
V365     V     0.9485   0.7468   0.3937
V366     V     0.8937   0.7468   0.4485
V367     V     0.1985   0.7532   0.1437
V368     V     0.1437   0.7532   0.1985
V369     V     0.1985   0.6437   0.2532
V370     V     0.1437   0.6985   0.2532
V371     V     0.2532   0.6437   0.1985
V372     V     0.2532   0.6985   0.1437
Er373     Er     0.9592   0.7238   0.169
Er374     Er     0.919   0.7762   0.2092
Er375     Er     0.0262   0.7908   0.169
Er376     Er     0.9738   0.831   0.2092
Er377     Er     0.081   0.7238   0.2908
Er378     Er     0.0408   0.7762   0.331
Er379     Er     0.081   0.7908   0.2238
Er380     Er     0.0408   0.831   0.2763
Er381     Er     0.9592   0.669   0.2238
Er382     Er     0.919   0.7092   0.2762
Er383     Er     0.9738   0.7092   0.331
Er384     Er     0.0262   0.669   0.2908
loop_
_geom_bond_atom_site_label_1
_geom_bond_atom_site_label_2
_geom_bond_distance
_geom_bond_site_symmetry_2
_ccdc_geom_bond_type
V1     V2    9.999   .     S
V1     V3    10.001   1_655     S
V1     Er381    10.0   .     S
V2     V5    10.001   1_655     S
V2     Er25    10.0   .     S
V3     V1    10.001   1_455     S
V3     V4    9.999   .     S
V3     Er384    10.0   .     S
V4     V6    10.001   .     S
V4     Er306    10.0   .     S
V5     V2    10.001   1_455     S
V5     V6    9.999   .     S
V5     Er27    10.0   .     S
V6     Er312    10.0   .     S
Er7     Er8    10.0   .     S
Er7     V142    10.0   .     S
Er7     Er15    10.001   .     S
Er8     V182    10.0   .     S
Er8     Er10    10.001   .     S
Er9     Er10    10.0   1_545     S
Er9     V140    10.0   .     S
Er9     Er11    10.001   .     S
Er10     Er9    10.0   1_565     S
Er10     V56    10.0   .     S
Er11     Er12    10.0   1_554     S
Er11     V38    10.0   .     S
Er12     Er11    10.0   1_556     S
Er12     V58    10.0   .     S
Er12     Er14    10.001   .     S
Er13     Er14    10.0   .     S
Er13     V40    10.0   .     S
Er13     Er17    10.001   .     S
Er14     V106    10.0   .     S
Er15     Er16    10.0   1_554     S
Er15     V157    10.0   .     S
Er16     Er15    10.0   1_556     S
Er16     V186    10.0   .     S
Er16     Er18    10.001   .     S
Er17     Er18    10.0   1_545     S
Er17     V162    10.0   .     S
Er18     Er17    10.0   1_565     S
Er18     V103    10.0   .     S
V19     V20    9.999   .     S
V19     V21    10.001   1_654     S
V19     Er28    10.0   .     S
V20     V24    10.001   1_554     S
V20     Er124    10.0   .     S
V21     V22    9.999   .     S
V21     V19    10.001   1_456     S
V21     Er30    10.0   .     S
V22     V23    10.001   1_455     S
V22     Er102    10.0   .     S
V23     V24    9.999   .     S
V23     V22    10.001   1_655     S
V23     Er100    10.0   .     S
V24     V20    10.001   1_556     S
V24     Er122    10.0   .     S
Er25     Er26    10.0   .     S
Er25     Er33    10.001   .     S
Er26     V116    10.0   .     S
Er26     Er28    10.001   .     S
Er27     Er28    10.0   1_455     S
Er27     Er29    10.001   .     S
Er28     Er27    10.0   1_655     S
Er29     Er30    10.0   1_554     S
Er29     V200    10.0   .     S
Er30     Er29    10.0   1_556     S
Er30     Er32    10.001   .     S
Er31     Er32    10.0   .     S
Er31     V201    10.0   .     S
Er31     Er35    10.001   .     S
Er32     V88    10.0   .     S
Er33     Er34    10.0   1_554     S
Er33     V205    10.0   .     S
Er34     Er33    10.0   1_556     S
Er34     V120    10.0   .     S
Er34     Er36    10.001   .     S
Er35     Er36    10.0   1_455     S
Er35     V209    10.0   .     S
Er36     Er35    10.0   1_655     S
Er36     V85    10.0   .     S
V37     V38    9.999   .     S
V37     V42    10.001   .     S
V37     Er327    10.0   .     S
V38     V40    10.001   1_554     S
V39     V40    9.999   .     S
V39     V41    10.001   1_556     S
V39     Er129    10.0   .     S
V40     V38    10.001   1_556     S
V41     V39    10.001   1_554     S
V41     V42    9.999   .     S
V41     Er128    10.0   .     S
V42     Er329    10.0   .     S
V43     V44    9.999   .     S
V43     V47    10.001   .     S
V43     Er338    10.0   .     S
V44     V46    10.001   .     S
V44     Er168    10.0   .     S
V45     V46    9.999   .     S
V45     V48    10.001   .     S
V45     Er191    10.0   .     S
V46     Er169    10.0   .     S
V47     V48    9.999   .     S
V47     Er336    10.0   .     S
V48     Er188    10.0   .     S
V49     V50    9.999   .     S
V49     V54    10.001   .     S
V49     Er252    10.0   .     S
V50     V51    10.001   .     S
V50     Er193    10.0   .     S
V51     V52    9.999   .     S
V51     Er190    10.0   .     S
V52     V53    10.001   .     S
V52     Er334    10.0   .     S
V53     V54    9.999   .     S
V53     Er332    10.0   .     S
V54     Er254    10.0   .     S
V55     V56    9.999   .     S
V55     V60    10.001   1_554     S
V55     Er218    10.0   .     S
V56     V58    10.001   1_564     S
V57     V58    9.999   .     S
V57     V59    10.001   1_545     S
V57     Er68    10.0   .     S
V58     V56    10.001   1_546     S
V59     V60    9.999   .     S
V59     V57    10.001   1_565     S
V59     Er66    10.0   .     S
V60     V55    10.001   1_556     S
V60     Er220    10.0   .     S
Er61     Er62    10.0   .     S
Er61     V293    10.0   .     S
Er61     Er63    10.001   .     S
Er62     V211    10.0   .     S
Er62     Er71    10.001   .     S
Er63     Er64    10.0   .     S
Er63     V83    10.0   .     S
Er64     V216    10.0   .     S
Er64     Er66    10.001   .     S
Er65     Er66    10.0   1_545     S
Er65     V82    10.0   .     S
Er65     Er67    10.001   .     S
Er66     Er65    10.0   1_565     S
Er67     Er68    10.0   .     S
Er67     V76    10.0   .     S
Er68     Er70    10.001   .     S
Er69     Er70    10.0   .     S
Er69     V78    10.0   .     S
Er69     Er72    10.001   .     S
Er70     V105    10.0   .     S
Er71     Er72    10.0   1_565     S
Er71     V108    10.0   .     S
Er72     Er71    10.0   1_545     S
Er72     V291    10.0   .     S
V73     V74    9.999   .     S
V73     V77    10.001   .     S
V73     Er352    10.0   .     S
V74     V75    10.001   .     S
V74     Er98    10.0   .     S
V75     V76    9.999   .     S
V75     Er101    10.0   .     S
V76     V78    10.001   .     S
V77     V78    9.999   .     S
V77     Er354    10.0   .     S
V79     V80    9.999   .     S
V79     V84    10.001   1_645     S
V79     Er267    10.0   .     S
V80     V81    10.001   1_655     S
V80     Er95    10.0   .     S
V81     V80    10.001   1_455     S
V81     V82    9.999   .     S
V81     Er99    10.0   .     S
V82     V83    10.001   1_545     S
V83     V84    9.999   .     S
V83     V82    10.001   1_565     S
V84     V79    10.001   1_465     S
V84     Er265    10.0   .     S
V85     V86    9.999   .     S
V85     V88    10.001   1_655     S
V86     V90    10.001   .     S
V86     Er174    10.0   .     S
V87     V88    9.999   .     S
V87     V89    10.001   1_455     S
V87     Er97    10.0   .     S
V88     V85    10.001   1_455     S
V89     V90    9.999   .     S
V89     V87    10.001   1_655     S
V89     Er93    10.0   .     S
V90     Er163    10.0   .     S
Er91     Er92    10.0   .     S
Er91     V273    10.0   .     S
Er91     Er95    10.001   .     S
Er92     V176    10.0   .     S
Er92     Er93    10.001   .     S
Er93     Er94    10.0   1_655     S
Er94     Er93    10.0   1_455     S
Er94     V275    10.0   .     S
Er94     Er98    10.001   .     S
Er95     Er96    10.0   .     S
Er96     V180    10.0   .     S
Er96     Er100    10.001   .     S
Er97     Er98    10.0   .     S
Er97     Er102    10.001   .     S
Er99     Er100    10.0   1_455     S
Er99     Er101    10.001   .     S
Er100     Er99    10.0   1_655     S
Er101     Er102    10.0   .     S
V103     V104    9.999   .     S
V103     V106    10.001   1_565     S
V104     V107    10.001   .     S
V104     Er195    10.0   .     S
V105     V106    9.999   .     S
V105     V108    10.001   1_545     S
V106     V103    10.001   1_545     S
V107     V108    9.999   .     S
V107     Er194    10.0   .     S
V108     V105    10.001   1_565     S
V109     V110    9.999   .     S
V109     V114    10.001   .     S
V109     Er145    10.0   .     S
V110     V112    10.001   .     S
V110     Er123    10.0   .     S
V111     V112    9.999   .     S
V111     V113    10.001   .     S
V111     Er323    10.0   .     S
V112     Er125    10.0   .     S
V113     V114    9.999   .     S
V113     Er322    10.0   .     S
V114     Er151    10.0   .     S
V115     V116    9.999   .     S
V115     V118    10.001   1_554     S
V115     Er126    10.0   .     S
V116     V120    10.001   1_554     S
V117     V118    9.999   .     S
V117     V119    10.001   .     S
V117     Er170    10.0   .     S
V118     V115    10.001   1_556     S
V118     Er127    10.0   .     S
V119     V120    9.999   .     S
V119     Er171    10.0   .     S
V120     V116    10.001   1_556     S
Er121     Er122    10.0   1_554     S
Er121     V159    10.0   .     S
Er121     Er123    10.001   .     S
Er122     Er121    10.0   1_556     S
Er122     Er132    10.001   .     S
Er123     Er124    10.0   .     S
Er124     Er126    10.001   .     S
Er125     Er126    10.0   .     S
Er125     Er128    10.001   .     S
Er127     Er128    10.0   1_556     S
Er127     Er130    10.001   .     S
Er128     Er127    10.0   1_554     S
Er129     Er130    10.0   .     S
Er129     Er131    10.001   .     S
Er130     V178    10.0   .     S
Er131     Er132    10.0   .     S
Er131     V161    10.0   .     S
Er132     V179    10.0   .     S
V133     V134    9.999   .     S
V133     V138    10.001   1_545     S
V133     Er270    10.0   .     S
V134     V135    10.001   1_545     S
V134     Er152    10.0   .     S
V135     V136    9.999   .     S
V135     V134    10.001   1_565     S
V135     Er149    10.0   .     S
V136     V137    10.001   .     S
V136     Er251    10.0   .     S
V137     V138    9.999   .     S
V137     Er250    10.0   .     S
V138     V133    10.001   1_565     S
V138     Er268    10.0   .     S
V139     V140    9.999   .     S
V139     V144    10.001   .     S
V139     Er325    10.0   .     S
V140     V142    10.001   1_545     S
V141     V142    9.999   .     S
V141     V143    10.001   1_565     S
V141     Er148    10.0   .     S
V142     V140    10.001   1_565     S
V143     V141    10.001   1_545     S
V143     V144    9.999   .     S
V143     Er150    10.0   .     S
V144     Er319    10.0   .     S
Er145     Er146    10.0   .     S
Er145     Er153    10.001   .     S
Er146     V283    10.0   .     S
Er146     Er152    10.001   .     S
Er147     Er148    10.0   .     S
Er147     V244    10.0   .     S
Er147     Er149    10.001   .     S
Er148     Er155    10.001   .     S
Er149     Er150    10.0   1_565     S
Er150     Er149    10.0   1_545     S
Er150     Er151    10.001   .     S
Er151     Er152    10.0   .     S
Er153     Er154    10.0   1_545     S
Er153     V160    10.0   .     S
Er154     Er153    10.0   1_565     S
Er154     V288    10.0   .     S
Er154     Er156    10.001   .     S
Er155     Er156    10.0   .     S
Er155     V158    10.0   .     S
Er156     V241    10.0   .     S
V157     V158    9.999   .     S
V157     V162    10.001   1_564     S
V158     V160    10.001   1_565     S
V159     V160    9.999   .     S
V159     V161    10.001   1_554     S
V160     V158    10.001   1_545     S
V161     V162    9.999   .     S
V161     V159    10.001   1_556     S
V162     V157    10.001   1_546     S
Er163     Er164    10.0   .     S
Er163     Er165    10.001   .     S
Er164     V233    10.0   .     S
Er164     Er173    10.001   .     S
Er165     Er166    10.0   .     S
Er165     V175    10.0   .     S
Er166     V230    10.0   .     S
Er166     Er168    10.001   .     S
Er167     Er168    10.0   .     S
Er167     V177    10.0   .     S
Er167     Er170    10.001   .     S
Er169     Er170    10.0   .     S
Er169     Er172    10.001   .     S
Er171     Er172    10.0   .     S
Er171     Er174    10.001   .     S
Er172     V235    10.0   .     S
Er173     Er174    10.0   .     S
Er173     V240    10.0   .     S
V175     V176    9.999   .     S
V175     V177    10.001   .     S
V176     V180    10.001   .     S
V177     V178    9.999   .     S
V178     V179    10.001   .     S
V179     V180    9.999   .     S
V181     V182    9.999   .     S
V181     V183    10.001   1_554     S
V181     Er223    10.0   .     S
V182     V186    10.001   1_554     S
V183     V184    9.999   .     S
V183     V181    10.001   1_556     S
V183     Er227    10.0   .     S
V184     V185    10.001   .     S
V184     Er192    10.0   .     S
V185     V186    9.999   .     S
V185     Er198    10.0   .     S
V186     V182    10.001   1_556     S
Er187     Er188    10.0   .     S
Er187     V213    10.0   .     S
Er187     Er192    10.001   .     S
Er188     Er190    10.001   .     S
Er189     Er190    10.0   .     S
Er189     V212    10.0   .     S
Er189     Er194    10.001   .     S
Er191     Er192    10.0   .     S
Er191     Er197    10.001   .     S
Er193     Er194    10.0   .     S
Er193     Er196    10.001   .     S
Er195     Er196    10.0   .     S
Er195     Er198    10.001   .     S
Er196     V237    10.0   .     S
Er197     Er198    10.0   .     S
Er197     V236    10.0   .     S
V199     V200    9.999   .     S
V199     V204    10.001   .     S
V199     Er304    10.0   .     S
V200     V201    10.001   1_554     S
V201     V202    9.999   .     S
V201     V200    10.001   1_556     S
V202     V203    10.001   1_556     S
V202     Er225    10.0   .     S
V203     V202    10.001   1_554     S
V203     V204    9.999   .     S
V203     Er228    10.0   .     S
V204     Er302    10.0   .     S
V205     V206    9.999   .     S
V205     V209    10.001   1_654     S
V206     V208    10.001   1_655     S
V206     Er373    10.0   .     S
V207     V208    9.999   .     S
V207     V210    10.001   1_554     S
V207     Er219    10.0   .     S
V208     V206    10.001   1_455     S
V208     Er375    10.0   .     S
V209     V205    10.001   1_456     S
V209     V210    9.999   .     S
V210     V207    10.001   1_556     S
V210     Er221    10.0   .     S
V211     V212    9.999   .     S
V211     V216    10.001   .     S
V212     V213    10.001   .     S
V213     V214    9.999   .     S
V214     V215    10.001   .     S
V214     Er226    10.0   .     S
V215     V216    9.999   .     S
V215     Er222    10.0   .     S
Er217     Er218    10.0   .     S
Er217     V367    10.0   .     S
Er217     Er219    10.001   .     S
Er218     Er223    10.001   .     S
Er219     Er220    10.0   1_554     S
Er220     Er219    10.0   1_556     S
Er220     Er222    10.001   .     S
Er221     Er222    10.0   .     S
Er221     Er225    10.001   .     S
Er223     Er224    10.0   .     S
Er224     V372    10.0   .     S
Er224     Er228    10.001   .     S
Er225     Er226    10.0   .     S
Er226     Er227    10.001   .     S
Er227     Er228    10.0   1_556     S
Er228     Er227    10.0   1_554     S
V229     V230    9.999   .     S
V229     V232    10.001   .     S
V229     Er342    10.0   .     S
V230     V233    10.001   .     S
V231     V232    9.999   .     S
V231     V234    10.001   .     S
V231     Er258    10.0   .     S
V232     Er340    10.0   .     S
V233     V234    9.999   .     S
V234     Er256    10.0   .     S
V235     V236    9.999   .     S
V235     V240    10.001   .     S
V236     V237    10.001   .     S
V237     V238    9.999   .     S
V238     V239    10.001   .     S
V238     Er249    10.0   .     S
V239     V240    9.999   .     S
V239     Er248    10.0   .     S
V241     V242    9.999   .     S
V241     V244    10.001   .     S
V242     V246    10.001   .     S
V242     Er374    10.0   .     S
V243     V244    9.999   .     S
V243     V245    10.001   .     S
V243     Er253    10.0   .     S
V245     V246    9.999   .     S
V245     Er257    10.0   .     S
V246     Er382    10.0   .     S
Er247     Er248    10.0   .     S
Er247     V362    10.0   .     S
Er247     Er250    10.001   .     S
Er248     Er256    10.001   .     S
Er249     Er250    10.0   .     S
Er249     Er252    10.001   .     S
Er251     Er252    10.0   .     S
Er251     Er253    10.001   .     S
Er253     Er254    10.0   .     S
Er254     Er258    10.001   .     S
Er255     Er256    10.0   .     S
Er255     V366    10.0   .     S
Er255     Er257    10.001   .     S
Er257     Er258    10.0   .     S
Er259     Er260    10.0   .     S
Er259     V294    10.0   .     S
Er259     Er265    10.001   .     S
Er260     V364    10.0   .     S
Er260     Er262    10.001   .     S
Er261     Er262    10.0   1_545     S
Er261     V289    10.0   .     S
Er261     Er263    10.001   .     S
Er262     Er261    10.0   1_565     S
Er262     V286    10.0   .     S
Er263     Er264    10.0   1_455     S
Er263     V271    10.0   .     S
Er264     Er263    10.0   1_655     S
Er264     V284    10.0   .     S
Er264     Er270    10.001   .     S
Er265     Er266    10.0   1_455     S
Er266     Er265    10.0   1_655     S
Er266     V361    10.0   .     S
Er266     Er268    10.001   .     S
Er267     Er268    10.0   1_545     S
Er267     Er269    10.001   .     S
Er268     Er267    10.0   1_565     S
Er269     Er270    10.0   .     S
Er269     V274    10.0   .     S
V271     V272    9.999   .     S
V271     V274    10.001   1_455     S
V272     V276    10.001   .     S
V272     Er357    10.0   .     S
V273     V274    9.999   .     S
V273     V275    10.001   1_655     S
V274     V271    10.001   1_655     S
V275     V273    10.001   1_455     S
V275     V276    9.999   .     S
V276     Er349    10.0   .     S
V277     V278    9.999   .     S
V277     V280    10.001   .     S
V277     Er303    10.0   .     S
V278     V282    10.001   .     S
V278     Er328    10.0   .     S
V279     V280    9.999   .     S
V279     V281    10.001   .     S
V279     Er358    10.0   .     S
V280     Er311    10.0   .     S
V281     V282    9.999   .     S
V281     Er360    10.0   .     S
V282     Er326    10.0   .     S
V283     V284    9.999   .     S
V283     V288    10.001   1_545     S
V284     V286    10.001   1_645     S
V285     V286    9.999   .     S
V285     V287    10.001   1_455     S
V285     Er380    10.0   .     S
V286     V284    10.001   1_465     S
V287     V288    9.999   .     S
V287     V285    10.001   1_655     S
V287     Er376    10.0   .     S
V288     V283    10.001   1_565     S
V289     V290    9.999   .     S
V289     V294    10.001   1_545     S
V290     V292    10.001   .     S
V290     Er359    10.0   .     S
V291     V292    9.999   .     S
V291     V293    10.001   1_545     S
V292     Er356    10.0   .     S
V293     V294    9.999   .     S
V293     V291    10.001   1_565     S
V294     V289    10.001   1_565     S
V295     V296    9.999   .     S
V295     V298    10.001   .     S
V295     Er351    10.0   .     S
V296     V299    10.001   .     S
V296     Er335    10.0   .     S
V297     V298    9.999   .     S
V297     V300    10.001   .     S
V297     Er305    10.0   .     S
V298     Er350    10.0   .     S
V299     V300    9.999   .     S
V299     Er333    10.0   .     S
V300     Er309    10.0   .     S
Er301     Er302    10.0   .     S
Er301     V316    10.0   .     S
Er301     Er303    10.001   .     S
Er302     Er308    10.001   .     S
Er303     Er304    10.0   .     S
Er304     Er312    10.001   .     S
Er305     Er306    10.0   .     S
Er305     Er311    10.001   .     S
Er306     Er310    10.001   .     S
Er307     Er308    10.0   .     S
Er307     V313    10.0   .     S
Er307     Er309    10.001   .     S
Er308     V371    10.0   .     S
Er309     Er310    10.0   .     S
Er310     V369    10.0   .     S
Er311     Er312    10.0   .     S
V313     V314    9.999   .     S
V313     V316    10.001   .     S
V314     V317    10.001   .     S
V314     Er331    10.0   .     S
V315     V316    9.999   .     S
V315     V318    10.001   .     S
V315     Er330    10.0   .     S
V317     V318    9.999   .     S
V317     Er339    10.0   .     S
V318     Er324    10.0   .     S
Er319     Er320    10.0   .     S
Er319     Er322    10.001   .     S
Er320     V343    10.0   .     S
Er320     Er326    10.001   .     S
Er321     Er322    10.0   .     S
Er321     V346    10.0   .     S
Er321     Er324    10.001   .     S
Er323     Er324    10.0   .     S
Er323     Er329    10.001   .     S
Er325     Er326    10.0   .     S
Er325     Er327    10.001   .     S
Er327     Er328    10.0   .     S
Er328     Er330    10.001   .     S
Er329     Er330    10.0   .     S
Er331     Er332    10.0   .     S
Er331     Er333    10.001   .     S
Er332     Er340    10.001   .     S
Er333     Er334    10.0   .     S
Er334     Er336    10.001   .     S
Er335     Er336    10.0   .     S
Er335     Er337    10.001   .     S
Er337     Er338    10.0   .     S
Er337     V347    10.0   .     S
Er338     Er342    10.001   .     S
Er339     Er340    10.0   .     S
Er339     Er341    10.001   .     S
Er341     Er342    10.0   .     S
Er341     V345    10.0   .     S
V343     V344    9.999   .     S
V343     V346    10.001   .     S
V344     V348    10.001   .     S
V344     Er355    10.0   .     S
V345     V346    9.999   .     S
V345     V347    10.001   .     S
V347     V348    9.999   .     S
V348     Er353    10.0   .     S
Er349     Er350    10.0   .     S
Er349     Er352    10.001   .     S
Er350     Er358    10.001   .     S
Er351     Er352    10.0   .     S
Er351     Er353    10.001   .     S
Er353     Er354    10.0   .     S
Er354     Er356    10.001   .     S
Er355     Er356    10.0   .     S
Er355     Er360    10.001   .     S
Er357     Er358    10.0   .     S
Er357     Er359    10.001   .     S
Er359     Er360    10.0   .     S
V361     V362    9.999   .     S
V361     V364    10.001   1_655     S
V362     V366    10.001   .     S
V363     V364    9.999   .     S
V363     V365    10.001   1_455     S
V363     Er378    10.0   .     S
V364     V361    10.001   1_455     S
V365     V366    9.999   .     S
V365     V363    10.001   1_655     S
V365     Er383    10.0   .     S
V367     V368    9.999   .     S
V367     V372    10.001   .     S
V368     V370    10.001   .     S
V368     Er379    10.0   .     S
V369     V370    9.999   .     S
V369     V371    10.001   .     S
V370     Er377    10.0   .     S
V371     V372    9.999   .     S
Er373     Er374    10.0   .     S
Er373     Er381    10.001   .     S
Er374     Er376    10.001   .     S
Er375     Er376    10.0   1_455     S
Er375     Er379    10.001   .     S
Er376     Er375    10.0   1_655     S
Er377     Er378    10.0   .     S
Er377     Er384    10.001   .     S
Er378     Er380    10.001   .     S
Er379     Er380    10.0   .     S
Er381     Er382    10.0   .     S
Er382     Er383    10.001   .     S
Er383     Er384    10.0   1_655     S
Er384     Er383    10.0   1_455     S
