data_iacda
_audit_creation_date              2020-02-02
_audit_creation_method            'Pymatgen'
_symmetry_space_group_name_H-M    'P1'
_symmetry_Int_Tables_number       1
loop_
_symmetry_equiv_pos_as_xyz
  x,y,z
_cell_length_a                    122.6998
_cell_length_b                    122.6998
_cell_length_c                    122.6998
_cell_angle_alpha                 90.0
_cell_angle_beta                 90.0
_cell_angle_gamma                 90.0
loop_
_atom_site_label
_atom_site_type_symbol
_atom_site_fract_x
_atom_site_fract_y
_atom_site_fract_z
Er1     Er     0.1583   0.0917   0.125
Er2     Er     0.0917   0.125   0.1583
Er3     Er     0.125   0.1583   0.0917
Er4     Er     0.375   0.6583   0.0917
Er5     Er     0.3417   0.5917   0.125
Er6     Er     0.4083   0.625   0.1583
Er7     Er     0.1583   0.5917   0.875
Er8     Er     0.125   0.6583   0.9083
Er9     Er     0.0917   0.625   0.8417
Er10     Er     0.375   0.3417   0.4083
Er11     Er     0.4083   0.375   0.3417
Er12     Er     0.3417   0.4083   0.375
Er13     Er     0.875   0.3417   0.0917
Er14     Er     0.9083   0.375   0.1583
Er15     Er     0.8417   0.4083   0.125
Er16     Er     0.625   0.6583   0.5917
Er17     Er     0.5917   0.625   0.6583
Er18     Er     0.6583   0.5917   0.625
Er19     Er     0.125   0.3417   0.5917
Er20     Er     0.1583   0.4083   0.625
Er21     Er     0.0917   0.375   0.6583
Er22     Er     0.5917   0.875   0.1583
Er23     Er     0.6583   0.9083   0.125
Er24     Er     0.625   0.8417   0.0917
Er25     Er     0.9083   0.125   0.6583
Er26     Er     0.875   0.1583   0.5917
Er27     Er     0.8417   0.0917   0.625
Er28     Er     0.6583   0.0917   0.375
Er29     Er     0.5917   0.125   0.3417
Er30     Er     0.625   0.1583   0.4083
Er31     Er     0.875   0.8417   0.9083
Er32     Er     0.9083   0.875   0.8417
Er33     Er     0.8417   0.9083   0.875
Er34     Er     0.8417   0.5917   0.375
Er35     Er     0.9083   0.625   0.3417
Er36     Er     0.875   0.6583   0.4083
Er37     Er     0.6583   0.4083   0.875
Er38     Er     0.5917   0.375   0.8417
Er39     Er     0.625   0.3417   0.9083
Er40     Er     0.375   0.1583   0.9083
Er41     Er     0.3417   0.0917   0.875
Er42     Er     0.4083   0.125   0.8417
Er43     Er     0.375   0.8417   0.5917
Er44     Er     0.3417   0.9083   0.625
Er45     Er     0.4083   0.875   0.6583
Er46     Er     0.1583   0.9083   0.375
Er47     Er     0.0917   0.875   0.3417
Er48     Er     0.125   0.8417   0.4083
Ce49     Ce     0.0962   0.9593   0.751
Ce50     Ce     0.1538   0.999   0.7093
Ce51     Ce     0.0962   0.0407   0.749
Ce52     Ce     0.1538   0.001   0.7907
V53     V     0.9659   0.875   0.7841
Ti54     Ti     0.0342   0.9064   0.7526
Ti55     Ti     0.9974   0.8436   0.7158
Ce56     Ce     0.999   0.7093   0.1538
Ce57     Ce     0.0407   0.749   0.0962
Ce58     Ce     0.001   0.7907   0.1538
Ce59     Ce     0.9593   0.751   0.0962
V60     V     0.875   0.7841   0.9659
Ti61     Ti     0.9064   0.7526   0.0342
Ti62     Ti     0.8436   0.7158   0.9974
V63     V     0.125   0.7159   0.9659
Ti64     Ti     0.0936   0.7474   0.0342
Ti65     Ti     0.1564   0.7842   0.9974
V66     V     0.2841   0.5341   0.125
Ti67     Ti     0.2526   0.4658   0.0936
Ti68     Ti     0.2158   0.5026   0.1564
V69     V     0.7159   0.5341   0.625
Ti70     Ti     0.7474   0.4658   0.5936
Ti71     Ti     0.7842   0.5026   0.6564
Ce72     Ce     0.751   0.4038   0.4593
Ce73     Ce     0.7907   0.3462   0.501
Ce74     Ce     0.749   0.4038   0.5407
Ce75     Ce     0.7093   0.3462   0.499
V76     V     0.7841   0.5341   0.375
Ti77     Ti     0.7526   0.4658   0.4064
Ti78     Ti     0.7158   0.5026   0.3436
V79     V     0.4659   0.375   0.2841
Ti80     Ti     0.5342   0.4064   0.2526
Ti81     Ti     0.4974   0.3436   0.2158
Ce82     Ce     0.7907   0.6538   0.999
Ce83     Ce     0.749   0.5962   0.9593
Ce84     Ce     0.751   0.5962   0.0407
Ce85     Ce     0.7093   0.6538   0.001
V86     V     0.7159   0.4659   0.875
Ti87     Ti     0.7474   0.5342   0.9064
Ti88     Ti     0.7842   0.4974   0.8436
V89     V     0.7841   0.4659   0.125
Ti90     Ti     0.7526   0.5342   0.0936
Ti91     Ti     0.7158   0.4974   0.1564
Ce92     Ce     0.6538   0.501   0.2907
Ce93     Ce     0.5962   0.4593   0.251
Ce94     Ce     0.5962   0.5407   0.249
Ce95     Ce     0.6538   0.499   0.2093
V96     V     0.4659   0.625   0.2159
Ti97     Ti     0.4974   0.6564   0.2842
Ti98     Ti     0.5342   0.5936   0.2474
V99     V     0.9659   0.125   0.7159
Ti100     Ti     0.0342   0.0936   0.7474
Ti101     Ti     0.9974   0.1564   0.7842
Ce102     Ce     0.999   0.2093   0.8462
Ce103     Ce     0.0407   0.249   0.9038
Ce104     Ce     0.9593   0.251   0.9038
Ce105     Ce     0.001   0.2907   0.8462
V106     V     0.875   0.2841   0.0341
Ti107     Ti     0.8436   0.2158   0.0026
Ti108     Ti     0.9064   0.2526   0.9658
V109     V     0.0341   0.625   0.7841
Ti110     Ti     0.9658   0.5936   0.7526
Ti111     Ti     0.0026   0.6564   0.7158
Ce112     Ce     0.8462   0.499   0.7907
Ce113     Ce     0.8462   0.501   0.7093
Ce114     Ce     0.9038   0.4593   0.749
Ce115     Ce     0.9038   0.5407   0.751
V116     V     0.0341   0.375   0.7159
Ti117     Ti     0.9658   0.4064   0.7474
Ti118     Ti     0.0026   0.3436   0.7842
V119     V     0.125   0.2159   0.0341
Ti120     Ti     0.1564   0.2842   0.0026
Ti121     Ti     0.0936   0.2474   0.9658
Ce122     Ce     0.4593   0.249   0.0962
Ce123     Ce     0.499   0.2907   0.1538
Ce124     Ce     0.501   0.2093   0.1538
Ce125     Ce     0.5407   0.251   0.0962
V126     V     0.625   0.2841   0.9659
Ti127     Ti     0.6564   0.2158   0.9974
Ti128     Ti     0.5936   0.2526   0.0342
V129     V     0.375   0.2159   0.9659
Ti130     Ti     0.4064   0.2474   0.0342
Ti131     Ti     0.3436   0.2842   0.9974
Ce132     Ce     0.249   0.4038   0.9593
Ce133     Ce     0.251   0.4038   0.0407
Ce134     Ce     0.2907   0.3462   0.999
Ce135     Ce     0.2093   0.3462   0.001
V136     V     0.2159   0.5341   0.875
Ti137     Ti     0.2474   0.4658   0.9064
Ti138     Ti     0.2842   0.5026   0.8436
V139     V     0.5341   0.125   0.2841
Ti140     Ti     0.4658   0.0936   0.2526
Ti141     Ti     0.5026   0.1564   0.2158
V142     V     0.4659   0.125   0.7841
Ti143     Ti     0.4974   0.1564   0.7158
Ti144     Ti     0.5342   0.0936   0.7526
Ce145     Ce     0.6538   0.999   0.7907
Ce146     Ce     0.5962   0.0407   0.751
Ce147     Ce     0.6538   0.001   0.7093
Ce148     Ce     0.5962   0.9593   0.749
V149     V     0.4659   0.875   0.7159
Ti150     Ti     0.5342   0.9064   0.7474
Ti151     Ti     0.4974   0.8436   0.7842
Ce152     Ce     0.4038   0.5407   0.749
Ce153     Ce     0.4038   0.4593   0.751
Ce154     Ce     0.3462   0.501   0.7907
Ce155     Ce     0.3462   0.499   0.7093
V156     V     0.5341   0.625   0.7159
Ti157     Ti     0.4658   0.5936   0.7474
Ti158     Ti     0.5026   0.6564   0.7842
V159     V     0.5341   0.375   0.7841
Ti160     Ti     0.4658   0.4064   0.7526
Ti161     Ti     0.5026   0.3436   0.7158
V162     V     0.375   0.2841   0.4659
Ti163     Ti     0.4064   0.2526   0.5342
Ti164     Ti     0.3436   0.2158   0.4974
Ce165     Ce     0.501   0.2907   0.6538
Ce166     Ce     0.4593   0.251   0.5962
Ce167     Ce     0.499   0.2093   0.6538
Ce168     Ce     0.5407   0.249   0.5962
V169     V     0.625   0.2159   0.4659
Ti170     Ti     0.6564   0.2842   0.4974
Ti171     Ti     0.5936   0.2474   0.5342
Ce172     Ce     0.0407   0.751   0.5962
Ce173     Ce     0.001   0.7093   0.6538
Ce174     Ce     0.999   0.7907   0.6538
Ce175     Ce     0.9593   0.749   0.5962
V176     V     0.875   0.7159   0.4659
Ti177     Ti     0.9064   0.7474   0.5342
Ti178     Ti     0.8436   0.7842   0.4974
Ce179     Ce     0.4593   0.751   0.4038
Ce180     Ce     0.5407   0.749   0.4038
Ce181     Ce     0.501   0.7907   0.3462
Ce182     Ce     0.499   0.7093   0.3462
V183     V     0.625   0.7159   0.5341
Ti184     Ti     0.5936   0.7474   0.4658
Ti185     Ti     0.6564   0.7842   0.5026
V186     V     0.375   0.7841   0.5341
Ti187     Ti     0.4064   0.7526   0.4658
Ti188     Ti     0.3436   0.7158   0.5026
V189     V     0.2841   0.4659   0.375
Ti190     Ti     0.2526   0.5342   0.4064
Ti191     Ti     0.2158   0.4974   0.3436
V192     V     0.125   0.7841   0.4659
Ti193     Ti     0.0936   0.7526   0.5342
Ti194     Ti     0.1564   0.7158   0.4974
Ce195     Ce     0.249   0.5962   0.5407
Ce196     Ce     0.2907   0.6538   0.501
Ce197     Ce     0.251   0.5962   0.4593
Ce198     Ce     0.2093   0.6538   0.499
V199     V     0.2159   0.4659   0.625
Ti200     Ti     0.2842   0.4974   0.6564
Ti201     Ti     0.2474   0.5342   0.5936
V202     V     0.375   0.7159   0.0341
Ti203     Ti     0.4064   0.7474   0.9658
Ti204     Ti     0.3436   0.7842   0.0026
Ce205     Ce     0.2907   0.8462   0.001
Ce206     Ce     0.251   0.9038   0.9593
Ce207     Ce     0.2093   0.8462   0.999
Ce208     Ce     0.249   0.9038   0.0407
V209     V     0.2841   0.0341   0.875
Ti210     Ti     0.2526   0.9658   0.9064
Ti211     Ti     0.2158   0.0026   0.8436
Ce212     Ce     0.501   0.7093   0.8462
Ce213     Ce     0.499   0.7907   0.8462
Ce214     Ce     0.4593   0.749   0.9038
Ce215     Ce     0.5407   0.751   0.9038
V216     V     0.625   0.7841   0.0341
Ti217     Ti     0.5936   0.7526   0.9658
Ti218     Ti     0.6564   0.7158   0.0026
V219     V     0.2159   0.0341   0.125
Ti220     Ti     0.2842   0.0026   0.1564
Ti221     Ti     0.2474   0.9658   0.0936
Ce222     Ce     0.249   0.0962   0.4593
Ce223     Ce     0.2907   0.1538   0.499
Ce224     Ce     0.2093   0.1538   0.501
Ce225     Ce     0.251   0.0962   0.5407
V226     V     0.2841   0.9659   0.625
Ti227     Ti     0.2526   0.0342   0.5936
Ti228     Ti     0.2158   0.9974   0.6564
V229     V     0.2159   0.9659   0.375
Ti230     Ti     0.2474   0.0342   0.4064
Ti231     Ti     0.2842   0.9974   0.3436
Ce232     Ce     0.4038   0.9593   0.249
Ce233     Ce     0.4038   0.0407   0.251
Ce234     Ce     0.3462   0.999   0.2907
Ce235     Ce     0.3462   0.001   0.2093
V236     V     0.5341   0.875   0.2159
Ti237     Ti     0.4658   0.9064   0.2474
Ti238     Ti     0.5026   0.8436   0.2842
V239     V     0.125   0.2841   0.5341
Ti240     Ti     0.0936   0.2526   0.4658
Ti241     Ti     0.1564   0.2158   0.5026
V242     V     0.7159   0.9659   0.125
Ti243     Ti     0.7474   0.0342   0.0936
Ti244     Ti     0.7842   0.9974   0.1564
Ce245     Ce     0.7907   0.1538   0.001
Ce246     Ce     0.749   0.0962   0.0407
Ce247     Ce     0.7093   0.1538   0.999
Ce248     Ce     0.751   0.0962   0.9593
V249     V     0.7841   0.9659   0.875
Ti250     Ti     0.7526   0.0342   0.9064
Ti251     Ti     0.7158   0.9974   0.8436
V252     V     0.0341   0.875   0.2841
Ti253     Ti     0.0026   0.8436   0.2158
Ti254     Ti     0.9658   0.9064   0.2526
V255     V     0.7841   0.0341   0.625
Ti256     Ti     0.7526   0.9658   0.5936
Ti257     Ti     0.7158   0.0026   0.6564
Ce258     Ce     0.7907   0.8462   0.499
Ce259     Ce     0.749   0.9038   0.4593
Ce260     Ce     0.7093   0.8462   0.501
Ce261     Ce     0.751   0.9038   0.5407
Ce262     Ce     0.8462   0.999   0.2093
Ce263     Ce     0.9038   0.0407   0.249
Ce264     Ce     0.9038   0.9593   0.251
Ce265     Ce     0.8462   0.001   0.2907
V266     V     0.7159   0.0341   0.375
Ti267     Ti     0.7474   0.9658   0.4064
Ti268     Ti     0.7842   0.0026   0.3436
V269     V     0.0341   0.125   0.2159
Ti270     Ti     0.9658   0.0936   0.2474
Ti271     Ti     0.0026   0.1564   0.2842
Ce272     Ce     0.0962   0.4593   0.249
Ce273     Ce     0.0962   0.5407   0.251
Ce274     Ce     0.1538   0.499   0.2907
Ce275     Ce     0.1538   0.501   0.2093
V276     V     0.9659   0.625   0.2841
Ti277     Ti     0.0342   0.5936   0.2526
Ti278     Ti     0.9974   0.6564   0.2158
V279     V     0.9659   0.375   0.2159
Ti280     Ti     0.0342   0.4064   0.2474
Ti281     Ti     0.9974   0.3436   0.2842
Ce282     Ce     0.0407   0.251   0.4038
Ce283     Ce     0.9593   0.249   0.4038
Ce284     Ce     0.001   0.2093   0.3462
Ce285     Ce     0.999   0.2907   0.3462
V286     V     0.875   0.2159   0.5341
Ti287     Ti     0.8436   0.2842   0.5026
Ti288     Ti     0.9064   0.2474   0.4658
loop_
_geom_bond_atom_site_label_1
_geom_bond_atom_site_label_2
_geom_bond_distance
_geom_bond_site_symmetry_2
_ccdc_geom_bond_type
Er1     Er2    9.999   .     S
Er1     Er3    9.999   .     S
Er1     V219    10.0   .     S
Er2     Er3    9.999   .     S
Er2     V269    10.0   .     S
Er3     V119    10.0   .     S
Er4     Er6    9.999   .     S
Er4     Er5    9.999   .     S
Er4     V202    10.0   .     S
Er5     Er6    9.999   .     S
Er5     V66    10.0   .     S
Er6     V96    10.0   .     S
Er7     Er8    9.999   .     S
Er7     Er9    9.999   .     S
Er7     V136    10.0   .     S
Er8     Er9    9.999   .     S
Er8     V63    10.0   .     S
Er9     V109    10.0   .     S
Er10     Er11    9.999   .     S
Er10     Er12    9.999   .     S
Er10     V162    10.0   .     S
Er11     Er12    9.999   .     S
Er11     V79    10.0   .     S
Er12     V189    10.0   .     S
Er13     Er14    9.999   .     S
Er13     Er15    9.999   .     S
Er13     V106    10.0   .     S
Er14     Er15    9.999   .     S
Er14     V279    10.0   .     S
Er15     V89    10.0   .     S
Er16     Er17    9.999   .     S
Er16     Er18    9.999   .     S
Er16     V183    10.0   .     S
Er17     Er18    9.999   .     S
Er17     V156    10.0   .     S
Er18     V69    10.0   .     S
Er19     Er21    9.999   .     S
Er19     Er20    9.999   .     S
Er19     V239    10.0   .     S
Er20     Er21    9.999   .     S
Er20     V199    10.0   .     S
Er21     V116    10.0   .     S
Er22     Er23    9.999   .     S
Er22     Er24    9.999   .     S
Er22     V236    10.0   .     S
Er23     Er24    9.999   .     S
Er23     V242    10.0   .     S
Er24     V216    10.0   .     S
Er25     Er27    9.999   .     S
Er25     Er26    9.999   .     S
Er25     V99    10.0   .     S
Er26     Er27    9.999   .     S
Er26     V286    10.0   .     S
Er27     V255    10.0   .     S
Er28     Er30    9.999   .     S
Er28     Er29    9.999   .     S
Er28     V266    10.0   .     S
Er29     Er30    9.999   .     S
Er29     V139    10.0   .     S
Er30     V169    10.0   .     S
Er31     Er32    9.999   .     S
Er31     Er33    9.999   .     S
Er31     V60    10.0   .     S
Er32     Er33    9.999   .     S
Er32     V53    10.0   .     S
Er33     V249    10.0   .     S
Er34     Er36    9.999   .     S
Er34     Er35    9.999   .     S
Er34     V76    10.0   .     S
Er35     Er36    9.999   .     S
Er35     V276    10.0   .     S
Er36     V176    10.0   .     S
Er37     Er39    9.999   .     S
Er37     Er38    9.999   .     S
Er37     V86    10.0   .     S
Er38     Er39    9.999   .     S
Er38     V159    10.0   .     S
Er39     V126    10.0   .     S
Er40     Er42    9.999   .     S
Er40     Er41    9.999   .     S
Er40     V129    10.0   .     S
Er41     Er42    9.999   .     S
Er41     V209    10.0   .     S
Er42     V142    10.0   .     S
Er43     Er45    9.999   .     S
Er43     Er44    9.999   .     S
Er43     V186    10.0   .     S
Er44     Er45    9.999   .     S
Er44     V226    10.0   .     S
Er45     V149    10.0   .     S
Er46     Er48    9.999   .     S
Er46     Er47    9.999   .     S
Er46     V229    10.0   .     S
Er47     Er48    9.999   .     S
Er47     V252    10.0   .     S
Er48     V192    10.0   .     S
Ce49     Ce52    9.999   1_565     S
Ce49     Ce51    10.0   1_565     S
Ce49     Ce50    9.999   .     S
Ce49     Ti54    10.001   .     S
Ce50     Ce51    9.999   1_565     S
Ce50     Ce52    10.0   1_565     S
Ce50     Ti228    10.001   .     S
Ce51     Ce50    9.999   1_545     S
Ce51     Ce52    9.999   .     S
Ce51     Ce49    10.0   1_545     S
Ce51     Ti100    10.001   .     S
Ce52     Ce49    9.999   1_545     S
Ce52     Ce50    10.0   1_545     S
Ce52     Ti211    10.001   .     S
V53     Ti54    10.0   1_655     S
V53     Ti55    10.0   .     S
Ti54     Ti55    9.999   1_455     S
Ti54     V53    10.0   1_455     S
Ti55     Ti54    9.999   1_655     S
Ti55     Ce174    10.001   .     S
Ce56     Ce57    9.999   1_655     S
Ce56     Ce58    10.0   1_655     S
Ce56     Ce59    9.999   .     S
Ce56     Ti278    10.001   .     S
Ce57     Ce56    9.999   1_455     S
Ce57     Ce58    9.999   .     S
Ce57     Ce59    10.0   1_455     S
Ce57     Ti64    10.001   .     S
Ce58     Ce56    10.0   1_455     S
Ce58     Ce59    9.999   1_455     S
Ce58     Ti253    10.001   .     S
Ce59     Ce57    10.0   1_655     S
Ce59     Ce58    9.999   1_655     S
Ce59     Ti61    10.001   .     S
V60     Ti61    10.0   1_556     S
V60     Ti62    10.0   .     S
Ti61     Ti62    9.999   1_554     S
Ti61     V60    10.0   1_554     S
Ti62     Ti61    9.999   1_556     S
Ti62     Ce82    10.001   .     S
V63     Ti64    10.0   1_556     S
V63     Ti65    10.0   .     S
Ti64     Ti65    9.999   1_554     S
Ti64     V63    10.0   1_554     S
Ti65     Ti64    9.999   1_556     S
Ti65     Ce207    10.001   .     S
V66     Ti68    10.0   .     S
V66     Ti67    10.0   .     S
Ti67     Ti68    9.999   .     S
Ti67     Ce133    10.001   .     S
Ti68     Ce275    10.001   .     S
V69     Ti70    10.0   .     S
V69     Ti71    10.0   .     S
Ti70     Ti71    9.999   .     S
Ti70     Ce74    10.001   .     S
Ti71     Ce113    10.001   .     S
Ce72     Ce75    9.999   .     S
Ce72     Ce74    10.0   .     S
Ce72     Ce73    9.999   .     S
Ce72     Ti77    10.001   .     S
Ce73     Ce74    9.999   .     S
Ce73     Ce75    10.0   .     S
Ce73     Ti287    10.001   .     S
Ce74     Ce75    9.999   .     S
Ce75     Ti170    10.001   .     S
V76     Ti77    10.0   .     S
V76     Ti78    10.0   .     S
Ti77     Ti78    9.999   .     S
Ti78     Ce92    10.001   .     S
V79     Ti80    10.0   .     S
V79     Ti81    10.0   .     S
Ti80     Ti81    9.999   .     S
Ti80     Ce93    10.001   .     S
Ti81     Ce123    10.001   .     S
Ce82     Ce84    9.999   1_556     S
Ce82     Ce85    10.0   1_556     S
Ce82     Ce83    9.999   .     S
Ce83     Ce84    10.0   1_556     S
Ce83     Ce85    9.999   1_556     S
Ce83     Ti87    10.001   .     S
Ce84     Ce82    9.999   1_554     S
Ce84     Ce83    10.0   1_554     S
Ce84     Ce85    9.999   .     S
Ce84     Ti90    10.001   .     S
Ce85     Ce82    10.0   1_554     S
Ce85     Ce83    9.999   1_554     S
Ce85     Ti218    10.001   .     S
V86     Ti87    10.0   .     S
V86     Ti88    10.0   .     S
Ti87     Ti88    9.999   .     S
Ti88     Ce112    10.001   .     S
V89     Ti90    10.0   .     S
V89     Ti91    10.0   .     S
Ti90     Ti91    9.999   .     S
Ti91     Ce95    10.001   .     S
Ce92     Ce94    9.999   .     S
Ce92     Ce95    10.0   .     S
Ce92     Ce93    9.999   .     S
Ce93     Ce94    10.0   .     S
Ce93     Ce95    9.999   .     S
Ce94     Ce95    9.999   .     S
Ce94     Ti98    10.001   .     S
V96     Ti98    10.0   .     S
V96     Ti97    10.0   .     S
Ti97     Ti98    9.999   .     S
Ti97     Ce182    10.001   .     S
V99     Ti100    10.0   1_655     S
V99     Ti101    10.0   .     S
Ti100     Ti101    9.999   1_455     S
Ti100     V99    10.0   1_455     S
Ti101     Ti100    9.999   1_655     S
Ti101     Ce102    10.001   .     S
Ce102     Ce104    9.999   .     S
Ce102     Ce105    10.0   1_655     S
Ce102     Ce103    9.999   1_655     S
Ce103     Ce104    10.0   1_455     S
Ce103     Ce102    9.999   1_455     S
Ce103     Ce105    9.999   .     S
Ce103     Ti121    10.001   .     S
Ce104     Ce103    10.0   1_655     S
Ce104     Ce105    9.999   1_655     S
Ce104     Ti108    10.001   .     S
Ce105     Ce102    10.0   1_455     S
Ce105     Ce104    9.999   1_455     S
Ce105     Ti118    10.001   .     S
V106     Ti107    10.0   .     S
V106     Ti108    10.0   1_554     S
Ti107     Ti108    9.999   1_554     S
Ti107     Ce245    10.001   .     S
Ti108     Ti107    9.999   1_556     S
Ti108     V106    10.0   1_556     S
V109     Ti110    10.0   1_455     S
V109     Ti111    10.0   .     S
Ti110     Ti111    9.999   1_655     S
Ti110     V109    10.0   1_655     S
Ti110     Ce115    10.001   .     S
Ti111     Ti110    9.999   1_455     S
Ti111     Ce173    10.001   .     S
Ce112     Ce114    9.999   .     S
Ce112     Ce113    10.0   .     S
Ce112     Ce115    9.999   .     S
Ce113     Ce114    9.999   .     S
Ce113     Ce115    9.999   .     S
Ce114     Ce115    10.0   .     S
Ce114     Ti117    10.001   .     S
V116     Ti117    10.0   1_455     S
V116     Ti118    10.0   .     S
Ti117     Ti118    9.999   1_655     S
Ti117     V116    10.0   1_655     S
Ti118     Ti117    9.999   1_455     S
V119     Ti120    10.0   .     S
V119     Ti121    10.0   1_554     S
Ti120     Ti121    9.999   1_554     S
Ti120     Ce135    10.001   .     S
Ti121     Ti120    9.999   1_556     S
Ti121     V119    10.0   1_556     S
Ce122     Ce124    9.999   .     S
Ce122     Ce123    9.999   .     S
Ce122     Ce125    10.0   .     S
Ce122     Ti130    10.001   .     S
Ce123     Ce125    9.999   .     S
Ce123     Ce124    10.0   .     S
Ce124     Ce125    9.999   .     S
Ce124     Ti141    10.001   .     S
Ce125     Ti128    10.001   .     S
V126     Ti127    10.0   .     S
V126     Ti128    10.0   1_556     S
Ti127     Ti128    9.999   1_556     S
Ti127     Ce247    10.001   .     S
Ti128     Ti127    9.999   1_554     S
Ti128     V126    10.0   1_554     S
V129     Ti131    10.0   .     S
V129     Ti130    10.0   1_556     S
Ti130     Ti131    9.999   1_554     S
Ti130     V129    10.0   1_554     S
Ti131     Ti130    9.999   1_556     S
Ti131     Ce134    10.001   .     S
Ce132     Ce135    9.999   1_556     S
Ce132     Ce133    10.0   1_556     S
Ce132     Ce134    9.999   .     S
Ce132     Ti137    10.001   .     S
Ce133     Ce132    10.0   1_554     S
Ce133     Ce134    9.999   1_554     S
Ce133     Ce135    9.999   .     S
Ce134     Ce133    9.999   1_556     S
Ce134     Ce135    10.0   1_556     S
Ce135     Ce132    9.999   1_554     S
Ce135     Ce134    10.0   1_554     S
V136     Ti138    10.0   .     S
V136     Ti137    10.0   .     S
Ti137     Ti138    9.999   .     S
Ti138     Ce154    10.001   .     S
V139     Ti141    10.0   .     S
V139     Ti140    10.0   .     S
Ti140     Ti141    9.999   .     S
Ti140     Ce233    10.001   .     S
V142     Ti144    10.0   .     S
V142     Ti143    10.0   .     S
Ti143     Ti144    9.999   .     S
Ti143     Ce167    10.001   .     S
Ti144     Ce146    10.001   .     S
Ce145     Ce146    9.999   1_565     S
Ce145     Ce147    10.0   1_565     S
Ce145     Ce148    9.999   .     S
Ce145     Ti251    10.001   .     S
Ce146     Ce145    9.999   1_545     S
Ce146     Ce148    10.0   1_545     S
Ce146     Ce147    9.999   .     S
Ce147     Ce145    10.0   1_545     S
Ce147     Ce148    9.999   1_545     S
Ce147     Ti257    10.001   .     S
Ce148     Ce146    10.0   1_565     S
Ce148     Ce147    9.999   1_565     S
Ce148     Ti150    10.001   .     S
V149     Ti150    10.0   .     S
V149     Ti151    10.0   .     S
Ti150     Ti151    9.999   .     S
Ti151     Ce213    10.001   .     S
Ce152     Ce155    9.999   .     S
Ce152     Ce153    10.0   .     S
Ce152     Ce154    9.999   .     S
Ce152     Ti157    10.001   .     S
Ce153     Ce154    9.999   .     S
Ce153     Ce155    9.999   .     S
Ce153     Ti160    10.001   .     S
Ce154     Ce155    10.0   .     S
Ce155     Ti200    10.001   .     S
V156     Ti157    10.0   .     S
V156     Ti158    10.0   .     S
Ti157     Ti158    9.999   .     S
Ti158     Ce212    10.001   .     S
V159     Ti160    10.0   .     S
V159     Ti161    10.0   .     S
Ti160     Ti161    9.999   .     S
Ti161     Ce165    10.001   .     S
V162     Ti163    10.0   .     S
V162     Ti164    10.0   .     S
Ti163     Ti164    9.999   .     S
Ti163     Ce166    10.001   .     S
Ti164     Ce223    10.001   .     S
Ce165     Ce168    9.999   .     S
Ce165     Ce166    9.999   .     S
Ce165     Ce167    10.0   .     S
Ce166     Ce167    9.999   .     S
Ce166     Ce168    10.0   .     S
Ce167     Ce168    9.999   .     S
Ce168     Ti171    10.001   .     S
V169     Ti170    10.0   .     S
V169     Ti171    10.0   .     S
Ti170     Ti171    9.999   .     S
Ce172     Ce173    9.999   .     S
Ce172     Ce175    10.0   1_455     S
Ce172     Ce174    9.999   1_455     S
Ce172     Ti193    10.001   .     S
Ce173     Ce174    10.0   1_455     S
Ce173     Ce175    9.999   1_455     S
Ce174     Ce175    9.999   .     S
Ce174     Ce173    10.0   1_655     S
Ce174     Ce172    9.999   1_655     S
Ce175     Ce172    10.0   1_655     S
Ce175     Ce173    9.999   1_655     S
Ce175     Ti177    10.001   .     S
V176     Ti177    10.0   .     S
V176     Ti178    10.0   .     S
Ti177     Ti178    9.999   .     S
Ti178     Ce258    10.001   .     S
Ce179     Ce180    10.0   .     S
Ce179     Ce181    9.999   .     S
Ce179     Ce182    9.999   .     S
Ce179     Ti187    10.001   .     S
Ce180     Ce181    9.999   .     S
Ce180     Ce182    9.999   .     S
Ce180     Ti184    10.001   .     S
Ce181     Ce182    10.0   .     S
Ce181     Ti238    10.001   .     S
V183     Ti184    10.0   .     S
V183     Ti185    10.0   .     S
Ti184     Ti185    9.999   .     S
Ti185     Ce260    10.001   .     S
V186     Ti187    10.0   .     S
V186     Ti188    10.0   .     S
Ti187     Ti188    9.999   .     S
Ti188     Ce196    10.001   .     S
V189     Ti190    10.0   .     S
V189     Ti191    10.0   .     S
Ti190     Ti191    9.999   .     S
Ti190     Ce197    10.001   .     S
Ti191     Ce274    10.001   .     S
V192     Ti193    10.0   .     S
V192     Ti194    10.0   .     S
Ti193     Ti194    9.999   .     S
Ti194     Ce198    10.001   .     S
Ce195     Ce198    9.999   .     S
Ce195     Ce196    9.999   .     S
Ce195     Ce197    10.0   .     S
Ce195     Ti201    10.001   .     S
Ce196     Ce198    10.0   .     S
Ce196     Ce197    9.999   .     S
Ce197     Ce198    9.999   .     S
V199     Ti200    10.0   .     S
V199     Ti201    10.0   .     S
Ti200     Ti201    9.999   .     S
V202     Ti203    10.0   1_554     S
V202     Ti204    10.0   .     S
Ti203     Ti204    9.999   1_556     S
Ti203     V202    10.0   1_556     S
Ti203     Ce214    10.001   .     S
Ti204     Ti203    9.999   1_554     S
Ti204     Ce205    10.001   .     S
Ce205     Ce208    9.999   .     S
Ce205     Ce206    9.999   1_554     S
Ce205     Ce207    10.0   1_554     S
Ce206     Ce205    9.999   1_556     S
Ce206     Ce208    10.0   1_556     S
Ce206     Ce207    9.999   .     S
Ce206     Ti210    10.001   .     S
Ce207     Ce205    10.0   1_556     S
Ce207     Ce208    9.999   1_556     S
Ce208     Ce206    10.0   1_554     S
Ce208     Ce207    9.999   1_554     S
Ce208     Ti221    10.001   .     S
V209     Ti211    10.0   .     S
V209     Ti210    10.0   1_545     S
Ti210     Ti211    9.999   1_565     S
Ti210     V209    10.0   1_565     S
Ti211     Ti210    9.999   1_545     S
Ce212     Ce215    9.999   .     S
Ce212     Ce214    9.999   .     S
Ce212     Ce213    10.0   .     S
Ce213     Ce214    9.999   .     S
Ce213     Ce215    9.999   .     S
Ce214     Ce215    10.0   .     S
Ce215     Ti217    10.001   .     S
V216     Ti217    10.0   1_554     S
V216     Ti218    10.0   .     S
Ti217     Ti218    9.999   1_556     S
Ti217     V216    10.0   1_556     S
Ti218     Ti217    9.999   1_554     S
V219     Ti220    10.0   .     S
V219     Ti221    10.0   1_545     S
Ti220     Ti221    9.999   1_545     S
Ti220     Ce235    10.001   .     S
Ti221     Ti220    9.999   1_565     S
Ti221     V219    10.0   1_565     S
Ce222     Ce224    9.999   .     S
Ce222     Ce223    9.999   .     S
Ce222     Ce225    10.0   .     S
Ce222     Ti230    10.001   .     S
Ce223     Ce224    10.0   .     S
Ce223     Ce225    9.999   .     S
Ce224     Ce225    9.999   .     S
Ce224     Ti241    10.001   .     S
Ce225     Ti227    10.001   .     S
V226     Ti228    10.0   .     S
V226     Ti227    10.0   1_565     S
Ti227     Ti228    9.999   1_545     S
Ti227     V226    10.0   1_545     S
Ti228     Ti227    9.999   1_565     S
V229     Ti231    10.0   .     S
V229     Ti230    10.0   1_565     S
Ti230     Ti231    9.999   1_545     S
Ti230     V229    10.0   1_545     S
Ti231     Ti230    9.999   1_565     S
Ti231     Ce234    10.001   .     S
Ce232     Ce235    9.999   1_565     S
Ce232     Ce233    10.0   1_565     S
Ce232     Ce234    9.999   .     S
Ce232     Ti237    10.001   .     S
Ce233     Ce235    9.999   .     S
Ce233     Ce232    10.0   1_545     S
Ce233     Ce234    9.999   1_545     S
Ce234     Ce233    9.999   1_565     S
Ce234     Ce235    10.0   1_565     S
Ce235     Ce232    9.999   1_545     S
Ce235     Ce234    10.0   1_545     S
V236     Ti238    10.0   .     S
V236     Ti237    10.0   .     S
Ti237     Ti238    9.999   .     S
V239     Ti241    10.0   .     S
V239     Ti240    10.0   .     S
Ti240     Ti241    9.999   .     S
Ti240     Ce282    10.001   .     S
V242     Ti243    10.0   1_565     S
V242     Ti244    10.0   .     S
Ti243     Ti244    9.999   1_545     S
Ti243     V242    10.0   1_545     S
Ti243     Ce246    10.001   .     S
Ti244     Ti243    9.999   1_565     S
Ti244     Ce262    10.001   .     S
Ce245     Ce248    9.999   1_554     S
Ce245     Ce247    10.0   1_554     S
Ce245     Ce246    9.999   .     S
Ce246     Ce248    10.0   1_554     S
Ce246     Ce247    9.999   1_554     S
Ce247     Ce245    10.0   1_556     S
Ce247     Ce246    9.999   1_556     S
Ce247     Ce248    9.999   .     S
Ce248     Ce245    9.999   1_556     S
Ce248     Ce246    10.0   1_556     S
Ce248     Ti250    10.001   .     S
V249     Ti250    10.0   1_565     S
V249     Ti251    10.0   .     S
Ti250     Ti251    9.999   1_545     S
Ti250     V249    10.0   1_545     S
Ti251     Ti250    9.999   1_565     S
V252     Ti254    10.0   1_455     S
V252     Ti253    10.0   .     S
Ti253     Ti254    9.999   1_455     S
Ti254     Ti253    9.999   1_655     S
Ti254     V252    10.0   1_655     S
Ti254     Ce264    10.001   .     S
V255     Ti256    10.0   1_545     S
V255     Ti257    10.0   .     S
Ti256     Ti257    9.999   1_565     S
Ti256     V255    10.0   1_565     S
Ti256     Ce261    10.001   .     S
Ti257     Ti256    9.999   1_545     S
Ce258     Ce260    10.0   .     S
Ce258     Ce259    9.999   .     S
Ce258     Ce261    9.999   .     S
Ce259     Ce261    10.0   .     S
Ce259     Ce260    9.999   .     S
Ce259     Ti267    10.001   .     S
Ce260     Ce261    9.999   .     S
Ce262     Ce264    9.999   .     S
Ce262     Ce265    10.0   1_565     S
Ce262     Ce263    9.999   1_565     S
Ce263     Ce264    10.0   1_545     S
Ce263     Ce262    9.999   1_545     S
Ce263     Ce265    9.999   .     S
Ce263     Ti270    10.001   .     S
Ce264     Ce263    10.0   1_565     S
Ce264     Ce265    9.999   1_565     S
Ce265     Ce262    10.0   1_545     S
Ce265     Ce264    9.999   1_545     S
Ce265     Ti268    10.001   .     S
V266     Ti267    10.0   1_545     S
V266     Ti268    10.0   .     S
Ti267     Ti268    9.999   1_565     S
Ti267     V266    10.0   1_565     S
Ti268     Ti267    9.999   1_545     S
V269     Ti271    10.0   .     S
V269     Ti270    10.0   1_455     S
Ti270     Ti271    9.999   1_655     S
Ti270     V269    10.0   1_655     S
Ti271     Ti270    9.999   1_455     S
Ti271     Ce284    10.001   .     S
Ce272     Ce275    9.999   .     S
Ce272     Ce274    9.999   .     S
Ce272     Ce273    10.0   .     S
Ce272     Ti280    10.001   .     S
Ce273     Ce274    9.999   .     S
Ce273     Ce275    9.999   .     S
Ce273     Ti277    10.001   .     S
Ce274     Ce275    10.0   .     S
V276     Ti278    10.0   .     S
V276     Ti277    10.0   1_655     S
Ti277     Ti278    9.999   1_455     S
Ti277     V276    10.0   1_455     S
Ti278     Ti277    9.999   1_655     S
V279     Ti281    10.0   .     S
V279     Ti280    10.0   1_655     S
Ti280     Ti281    9.999   1_455     S
Ti280     V279    10.0   1_455     S
Ti281     Ti280    9.999   1_655     S
Ti281     Ce285    10.001   .     S
Ce282     Ce284    9.999   .     S
Ce282     Ce283    10.0   1_455     S
Ce282     Ce285    9.999   1_455     S
Ce283     Ce282    10.0   1_655     S
Ce283     Ce285    9.999   .     S
Ce283     Ce284    9.999   1_655     S
Ce283     Ti288    10.001   .     S
Ce284     Ce283    9.999   1_455     S
Ce284     Ce285    10.0   1_455     S
Ce285     Ce282    9.999   1_655     S
Ce285     Ce284    10.0   1_655     S
V286     Ti287    10.0   .     S
V286     Ti288    10.0   .     S
Ti287     Ti288    9.999   .     S
