data_icc
_audit_creation_date              2020-02-02
_audit_creation_method            'Pymatgen'
_symmetry_space_group_name_H-M    'P1'
_symmetry_Int_Tables_number       1
loop_
_symmetry_equiv_pos_as_xyz
  x,y,z
_cell_length_a                    21.3809
_cell_length_b                    21.3809
_cell_length_c                    21.3809
_cell_angle_alpha                 90.0
_cell_angle_beta                 90.0
_cell_angle_gamma                 90.0
loop_
_atom_site_label
_atom_site_type_symbol
_atom_site_fract_x
_atom_site_fract_y
_atom_site_fract_z
V1     V     0.0   0.25   0.125
V2     V     0.0   0.75   0.375
V3     V     0.5   0.75   0.625
V4     V     0.5   0.25   0.875
V5     V     0.125   0.0   0.25
V6     V     0.25   0.875   0.5
V7     V     0.375   0.0   0.75
V8     V     0.25   0.125   0.0
V9     V     0.75   0.375   0.0
V10     V     0.875   0.5   0.25
V11     V     0.75   0.625   0.5
V12     V     0.625   0.5   0.75
V13     V     0.0   0.75   0.875
V14     V     0.5   0.25   0.375
V15     V     0.5   0.75   0.125
V16     V     0.875   0.0   0.75
V17     V     0.75   0.125   0.5
V18     V     0.75   0.875   0.0
V19     V     0.125   0.5   0.75
V20     V     0.25   0.375   0.5
V21     V     0.375   0.5   0.25
V22     V     0.0   0.25   0.625
V23     V     0.625   0.0   0.25
V24     V     0.25   0.625   0.0
loop_
_geom_bond_atom_site_label_1
_geom_bond_atom_site_label_2
_geom_bond_distance
_geom_bond_site_symmetry_2
_ccdc_geom_bond_type
V1     V24    10.0   .     S
V1     V19    10.0   1_554     S
V1     V23    10.0   1_455     S
V1     V17    10.0   1_455     S
V1     V16    10.0   1_454     S
V1     V18    10.0   1_445     S
V1     V21    10.0   .     S
V1     V20    10.0   .     S
V2     V16    10.0   1_465     S
V2     V17    10.0   1_465     S
V2     V20    10.0   .     S
V2     V19    10.0   .     S
V2     V24    10.0   .     S
V2     V21    10.0   .     S
V2     V18    10.0   1_455     S
V2     V23    10.0   1_465     S
V3     V24    10.0   1_556     S
V3     V20    10.0   .     S
V3     V19    10.0   .     S
V3     V21    10.0   .     S
V3     V23    10.0   1_565     S
V3     V17    10.0   1_565     S
V3     V16    10.0   1_565     S
V3     V18    10.0   1_556     S
V4     V17    10.0   .     S
V4     V21    10.0   1_556     S
V4     V24    10.0   1_556     S
V4     V19    10.0   .     S
V4     V18    10.0   1_546     S
V4     V16    10.0   .     S
V4     V23    10.0   1_556     S
V4     V20    10.0   .     S
V5     V17    10.0   1_455     S
V5     V22    10.0   .     S
V5     V24    10.0   1_545     S
V5     V15    10.0   1_545     S
V5     V13    10.0   1_544     S
V5     V18    10.0   1_445     S
V5     V14    10.0   .     S
V5     V20    10.0   .     S
V6     V16    10.0   1_465     S
V6     V13    10.0   .     S
V6     V22    10.0   1_565     S
V6     V19    10.0   .     S
V6     V15    10.0   .     S
V6     V23    10.0   1_565     S
V6     V14    10.0   1_565     S
V6     V21    10.0   .     S
V7     V22    10.0   .     S
V7     V20    10.0   .     S
V7     V14    10.0   .     S
V7     V17    10.0   .     S
V7     V15    10.0   1_546     S
V7     V18    10.0   1_546     S
V7     V13    10.0   1_545     S
V7     V24    10.0   1_546     S
V8     V22    10.0   1_554     S
V8     V19    10.0   1_554     S
V8     V23    10.0   .     S
V8     V15    10.0   1_545     S
V8     V16    10.0   1_454     S
V8     V13    10.0   1_544     S
V8     V14    10.0   .     S
V8     V21    10.0   .     S
V9     V15    10.0   .     S
V9     V21    10.0   .     S
V9     V19    10.0   1_654     S
V9     V13    10.0   1_654     S
V9     V23    10.0   .     S
V9     V14    10.0   .     S
V9     V16    10.0   1_554     S
V9     V22    10.0   1_654     S
V10     V15    10.0   .     S
V10     V22    10.0   1_655     S
V10     V20    10.0   1_655     S
V10     V13    10.0   1_654     S
V10     V18    10.0   .     S
V10     V24    10.0   1_655     S
V10     V14    10.0   .     S
V10     V17    10.0   .     S
V11     V16    10.0   1_565     S
V11     V21    10.0   .     S
V11     V14    10.0   .     S
V11     V15    10.0   .     S
V11     V23    10.0   1_565     S
V11     V19    10.0   1_655     S
V11     V22    10.0   1_655     S
V11     V13    10.0   1_655     S
V12     V17    10.0   .     S
V12     V15    10.0   1_556     S
V12     V18    10.0   1_556     S
V12     V24    10.0   1_556     S
V12     V14    10.0   .     S
V12     V20    10.0   .     S
V12     V22    10.0   1_655     S
V12     V13    10.0   1_655     S
V13     V11    10.0   1_455     S
V13     V9    10.0   1_456     S
V13     V10    10.0   1_456     S
V13     V12    10.0   1_455     S
V13     V8    10.0   1_566     S
V13     V5    10.0   1_566     S
V13     V7    10.0   1_565     S
V14     V6    10.0   1_545     S
V15     V12    10.0   1_554     S
V15     V5    10.0   1_565     S
V15     V7    10.0   1_564     S
V15     V8    10.0   1_565     S
V16     V2    10.0   1_645     S
V16     V6    10.0   1_645     S
V16     V11    10.0   1_545     S
V16     V3    10.0   1_545     S
V16     V1    10.0   1_656     S
V16     V9    10.0   1_556     S
V16     V8    10.0   1_656     S
V17     V2    10.0   1_645     S
V17     V5    10.0   1_655     S
V17     V3    10.0   1_545     S
V17     V1    10.0   1_655     S
V18     V12    10.0   1_554     S
V18     V7    10.0   1_564     S
V18     V3    10.0   1_554     S
V18     V4    10.0   1_564     S
V18     V1    10.0   1_665     S
V18     V5    10.0   1_665     S
V18     V2    10.0   1_655     S
V19     V11    10.0   1_455     S
V19     V9    10.0   1_456     S
V19     V1    10.0   1_556     S
V19     V8    10.0   1_556     S
V20     V10    10.0   1_455     S
V21     V4    10.0   1_554     S
V22     V6    10.0   1_545     S
V22     V11    10.0   1_455     S
V22     V10    10.0   1_455     S
V22     V12    10.0   1_455     S
V22     V8    10.0   1_556     S
V22     V9    10.0   1_456     S
V23     V6    10.0   1_545     S
V23     V3    10.0   1_545     S
V23     V11    10.0   1_545     S
V23     V4    10.0   1_554     S
V23     V1    10.0   1_655     S
V23     V2    10.0   1_645     S
V24     V4    10.0   1_554     S
V24     V12    10.0   1_554     S
V24     V3    10.0   1_554     S
V24     V5    10.0   1_565     S
V24     V10    10.0   1_455     S
V24     V7    10.0   1_564     S
