data_ict
_audit_creation_date              2020-02-02
_audit_creation_method            'Pymatgen'
_symmetry_space_group_name_H-M    'P1'
_symmetry_Int_Tables_number       1
loop_
_symmetry_equiv_pos_as_xyz
  x,y,z
_cell_length_a                    46.4398
_cell_length_b                    46.4398
_cell_length_c                    22.4033
_cell_angle_alpha                 90.0
_cell_angle_beta                 90.0
_cell_angle_gamma                 120.0
loop_
_atom_site_label
_atom_site_type_symbol
_atom_site_fract_x
_atom_site_fract_y
_atom_site_fract_z
V1     V     0.3764   0.4798   0.126
V2     V     0.4798   0.3764   0.374
V3     V     0.1869   0.23   0.4594
V4     V     0.2903   0.4367   0.7073
V5     V     0.23   0.1869   0.0406
V6     V     0.4367   0.2903   0.7927
V7     V     0.6236   0.1034   0.374
V8     V     0.5202   0.8966   0.126
V9     V     0.5633   0.8536   0.7073
V10     V     0.77   0.9569   0.4594
V11     V     0.7097   0.1464   0.7927
V12     V     0.8131   0.0431   0.0406
V13     V     0.8966   0.3764   0.874
V14     V     0.1034   0.4798   0.626
V15     V     0.1464   0.4367   0.2073
V16     V     0.0431   0.23   0.9594
V17     V     0.9569   0.1869   0.5406
V18     V     0.8536   0.2903   0.2927
V19     V     0.4367   0.1464   0.2927
V20     V     0.23   0.0431   0.5406
V21     V     0.4798   0.1034   0.874
V22     V     0.3764   0.8966   0.626
V23     V     0.2903   0.8536   0.2073
V24     V     0.1869   0.9569   0.9594
V25     V     0.1034   0.6236   0.126
V26     V     0.8966   0.5202   0.374
V27     V     0.0431   0.8131   0.4594
V28     V     0.1464   0.7097   0.7073
V29     V     0.9569   0.77   0.0406
V30     V     0.8536   0.5633   0.7927
V31     V     0.6236   0.5202   0.874
V32     V     0.5202   0.6236   0.626
V33     V     0.5633   0.7097   0.2073
V34     V     0.77   0.8131   0.9594
V35     V     0.7097   0.5633   0.2927
V36     V     0.8131   0.77   0.5406
loop_
_geom_bond_atom_site_label_1
_geom_bond_atom_site_label_2
_geom_bond_distance
_geom_bond_site_symmetry_2
_ccdc_geom_bond_type
V1     V2    10.0   .     S
V1     V4    10.0   1_554     S
V1     V33    10.0   .     S
V1     V15    10.0   .     S
V2     V6    10.0   .     S
V2     V35    10.0   .     S
V2     V19    10.0   .     S
V3     V4    10.0   .     S
V3     V5    10.0   .     S
V3     V17    10.0   1_455     S
V3     V20    10.0   .     S
V4     V1    10.0   1_556     S
V4     V14    10.0   .     S
V4     V32    10.0   .     S
V5     V6    10.0   1_554     S
V5     V24    10.0   1_544     S
V5     V16    10.0   1_554     S
V6     V5    10.0   1_556     S
V6     V21    10.0   .     S
V6     V31    10.0   .     S
V7     V8    10.0   1_545     S
V7     V11    10.0   .     S
V7     V19    10.0   .     S
V7     V18    10.0   .     S
V8     V7    10.0   1_565     S
V8     V9    10.0   1_554     S
V8     V23    10.0   .     S
V8     V33    10.0   .     S
V9     V10    10.0   .     S
V9     V8    10.0   1_556     S
V9     V32    10.0   .     S
V9     V22    10.0   .     S
V10     V12    10.0   1_565     S
V10     V36    10.0   .     S
V10     V17    10.0   1_565     S
V11     V12    10.0   1_556     S
V11     V13    10.0   .     S
V11     V21    10.0   .     S
V12     V11    10.0   1_554     S
V12     V10    10.0   1_545     S
V12     V16    10.0   1_654     S
V12     V34    10.0   1_544     S
V13     V14    10.0   1_655     S
V13     V18    10.0   1_556     S
V13     V30    10.0   .     S
V14     V13    10.0   1_455     S
V14     V15    10.0   .     S
V14     V28    10.0   .     S
V15     V16    10.0   1_554     S
V15     V25    10.0   .     S
V16     V12    10.0   1_456     S
V16     V15    10.0   1_556     S
V16     V17    10.0   1_455     S
V16     V5    10.0   1_556     S
V17     V3    10.0   1_655     S
V17     V18    10.0   .     S
V17     V16    10.0   1_655     S
V17     V10    10.0   1_545     S
V18     V13    10.0   1_554     S
V18     V26    10.0   .     S
V19     V20    10.0   .     S
V19     V21    10.0   1_554     S
V20     V24    10.0   1_545     S
V20     V27    10.0   1_545     S
V21     V22    10.0   1_545     S
V21     V19    10.0   1_556     S
V22     V21    10.0   1_565     S
V22     V23    10.0   .     S
V22     V28    10.0   .     S
V23     V24    10.0   1_554     S
V23     V25    10.0   .     S
V24     V5    10.0   1_566     S
V24     V20    10.0   1_565     S
V24     V23    10.0   1_556     S
V24     V29    10.0   1_456     S
V25     V26    10.0   1_455     S
V25     V28    10.0   1_554     S
V26     V25    10.0   1_655     S
V26     V30    10.0   .     S
V26     V35    10.0   .     S
V27     V28    10.0   .     S
V27     V29    10.0   1_455     S
V27     V20    10.0   1_565     S
V27     V36    10.0   1_455     S
V28     V25    10.0   1_556     S
V29     V24    10.0   1_654     S
V29     V30    10.0   1_554     S
V29     V27    10.0   1_655     S
V29     V34    10.0   1_554     S
V30     V29    10.0   1_556     S
V30     V31    10.0   .     S
V31     V32    10.0   .     S
V31     V35    10.0   1_556     S
V32     V33    10.0   .     S
V33     V34    10.0   1_554     S
V34     V29    10.0   1_556     S
V34     V33    10.0   1_556     S
V34     V36    10.0   .     S
V34     V12    10.0   1_566     S
V35     V31    10.0   1_554     S
V35     V36    10.0   .     S
V36     V27    10.0   1_655     S
