data_ifi
_audit_creation_date              2020-02-02
_audit_creation_method            'Pymatgen'
_symmetry_space_group_name_H-M    'P1'
_symmetry_Int_Tables_number       1
loop_
_symmetry_equiv_pos_as_xyz
  x,y,z
_cell_length_a                    21.3809
_cell_length_b                    21.3809
_cell_length_c                    21.3809
_cell_angle_alpha                 90.0
_cell_angle_beta                 90.0
_cell_angle_gamma                 90.0
loop_
_atom_site_label
_atom_site_type_symbol
_atom_site_fract_x
_atom_site_fract_y
_atom_site_fract_z
V1     V     0.625   0.375   0.875
V2     V     0.875   0.625   0.375
V3     V     0.625   0.625   0.625
V4     V     0.125   0.875   0.375
Er5     Er     0.75   0.125   0.5
V6     V     0.375   0.125   0.875
Er7     Er     0.5   0.75   0.125
V8     V     0.375   0.875   0.625
Er9     Er     0.125   0.5   0.75
V10     V     0.875   0.375   0.125
Er11     Er     0.875   0.0   0.75
V12     V     0.125   0.125   0.125
Er13     Er     0.5   0.25   0.375
Er14     Er     0.375   0.5   0.25
Er15     Er     0.0   0.75   0.875
Er16     Er     0.75   0.875   0.0
Er17     Er     0.25   0.625   0.0
Er18     Er     0.625   0.0   0.25
Er19     Er     0.0   0.25   0.625
Er20     Er     0.25   0.375   0.5
loop_
_geom_bond_atom_site_label_1
_geom_bond_atom_site_label_2
_geom_bond_distance
_geom_bond_site_symmetry_2
_ccdc_geom_bond_type
V1     Er7    10.0   1_556     S
V1     Er14    10.0   1_556     S
V1     Er17    10.0   1_556     S
V1     Er19    10.0   1_655     S
V1     Er11    10.0   .     S
V1     Er5    10.0   .     S
V2     Er16    10.0   .     S
V2     Er18    10.0   1_565     S
V2     Er7    10.0   .     S
V2     Er19    10.0   1_655     S
V2     Er9    10.0   1_655     S
V2     Er20    10.0   1_655     S
V3     Er15    10.0   1_655     S
V3     Er16    10.0   1_556     S
V3     Er11    10.0   1_565     S
V3     Er20    10.0   .     S
V3     Er13    10.0   .     S
V3     Er14    10.0   .     S
V4     Er19    10.0   1_565     S
V4     Er11    10.0   1_465     S
V4     Er5    10.0   1_465     S
V4     Er7    10.0   .     S
V4     Er17    10.0   .     S
V4     Er14    10.0   .     S
Er5     V10    10.0   .     S
Er5     V4    10.0   1_645     S
Er5     V8    10.0   1_545     S
V6     Er19    10.0   .     S
V6     Er9    10.0   .     S
V6     Er20    10.0   .     S
V6     Er7    10.0   1_546     S
V6     Er18    10.0   1_556     S
V6     Er16    10.0   1_546     S
Er7     V1    10.0   1_554     S
Er7     V6    10.0   1_564     S
V8     Er13    10.0   1_565     S
V8     Er18    10.0   1_565     S
V8     Er5    10.0   1_565     S
V8     Er15    10.0   .     S
V8     Er17    10.0   1_556     S
V8     Er9    10.0   .     S
Er9     V2    10.0   1_455     S
Er9     V10    10.0   1_456     S
V10     Er18    10.0   .     S
V10     Er13    10.0   .     S
V10     Er17    10.0   1_655     S
V10     Er9    10.0   1_654     S
V10     Er15    10.0   1_654     S
Er11     V3    10.0   1_545     S
Er11     V4    10.0   1_645     S
Er11     V12    10.0   1_656     S
V12     Er15    10.0   1_544     S
V12     Er11    10.0   1_454     S
V12     Er16    10.0   1_445     S
V12     Er13    10.0   .     S
V12     Er20    10.0   .     S
V12     Er14    10.0   .     S
Er13     V8    10.0   1_545     S
Er14     V1    10.0   1_554     S
Er15     V3    10.0   1_455     S
Er15     V10    10.0   1_456     S
Er15     V12    10.0   1_566     S
Er16     V3    10.0   1_554     S
Er16     V6    10.0   1_564     S
Er16     V12    10.0   1_665     S
Er17     V1    10.0   1_554     S
Er17     V10    10.0   1_455     S
Er17     V8    10.0   1_554     S
Er18     V2    10.0   1_545     S
Er18     V6    10.0   1_554     S
Er18     V8    10.0   1_545     S
Er19     V1    10.0   1_455     S
Er19     V2    10.0   1_455     S
Er19     V4    10.0   1_545     S
Er20     V2    10.0   1_455     S
