data_jah
_audit_creation_date              2020-02-02
_audit_creation_method            'Pymatgen'
_symmetry_space_group_name_H-M    'P1'
_symmetry_Int_Tables_number       1
loop_
_symmetry_equiv_pos_as_xyz
  x,y,z
_cell_length_a                    125.9461
_cell_length_b                    125.9461
_cell_length_c                    125.9461
_cell_angle_alpha                 90.0
_cell_angle_beta                 90.0
_cell_angle_gamma                 90.0
loop_
_atom_site_label
_atom_site_type_symbol
_atom_site_fract_x
_atom_site_fract_y
_atom_site_fract_z
S1     S     0.597   0.3532   0.597
S2     S     0.653   0.3532   0.653
Ce3     Ce     0.625   0.422   0.625
S4     S     0.3532   0.597   0.597
S5     S     0.3532   0.653   0.653
Ce6     Ce     0.422   0.625   0.625
S7     S     0.8968   0.653   0.597
S8     S     0.8968   0.597   0.653
Ce9     Ce     0.828   0.625   0.625
S10     S     0.597   0.8968   0.653
S11     S     0.653   0.8968   0.597
Ce12     Ce     0.625   0.828   0.625
S13     S     0.653   0.597   0.8968
S14     S     0.597   0.653   0.8968
Ce15     Ce     0.625   0.625   0.828
S16     S     0.597   0.597   0.3532
S17     S     0.653   0.653   0.3532
Ce18     Ce     0.625   0.625   0.422
S19     S     0.6468   0.903   0.903
S20     S     0.6468   0.847   0.847
Ce21     Ce     0.578   0.875   0.875
S22     S     0.847   0.6468   0.847
S23     S     0.903   0.6468   0.903
Ce24     Ce     0.875   0.578   0.875
S25     S     0.903   0.903   0.6468
S26     S     0.847   0.847   0.6468
Ce27     Ce     0.875   0.875   0.578
S28     S     0.3968   0.597   0.153
S29     S     0.3968   0.653   0.097
Ce30     Ce     0.328   0.625   0.125
S31     S     0.3968   0.153   0.597
S32     S     0.3968   0.097   0.653
Ce33     Ce     0.328   0.125   0.625
S34     S     0.597   0.153   0.3968
S35     S     0.653   0.097   0.3968
Ce36     Ce     0.625   0.125   0.328
S37     S     0.1032   0.847   0.903
S38     S     0.1032   0.903   0.847
Ce39     Ce     0.172   0.875   0.875
S40     S     0.847   0.1032   0.903
S41     S     0.903   0.1032   0.847
Ce42     Ce     0.875   0.172   0.875
S43     S     0.347   0.903   0.6032
S44     S     0.403   0.847   0.6032
Ce45     Ce     0.375   0.875   0.672
S46     S     0.903   0.847   0.1032
S47     S     0.847   0.903   0.1032
Ce48     Ce     0.875   0.875   0.172
S49     S     0.097   0.3968   0.653
S50     S     0.1531   0.3968   0.597
Ce51     Ce     0.125   0.328   0.625
S52     S     0.653   0.8532   0.153
S53     S     0.597   0.8532   0.097
Ce54     Ce     0.625   0.922   0.125
S55     S     0.8532   0.597   0.097
S56     S     0.8532   0.653   0.1531
Ce57     Ce     0.922   0.625   0.125
S58     S     0.597   0.3968   0.153
S59     S     0.653   0.3968   0.097
Ce60     Ce     0.625   0.328   0.125
S61     S     0.8532   0.153   0.653
S62     S     0.8532   0.097   0.597
Ce63     Ce     0.922   0.125   0.625
S64     S     0.153   0.8532   0.653
S65     S     0.097   0.8532   0.597
Ce66     Ce     0.125   0.922   0.625
S67     S     0.653   0.153   0.8532
S68     S     0.597   0.097   0.8532
Ce69     Ce     0.625   0.125   0.922
S70     S     0.097   0.597   0.8532
S71     S     0.1531   0.653   0.8532
Ce72     Ce     0.125   0.625   0.922
S73     S     0.097   0.653   0.3968
S74     S     0.1531   0.597   0.3968
Ce75     Ce     0.125   0.625   0.328
S76     S     0.903   0.1468   0.403
S77     S     0.847   0.1468   0.347
Ce78     Ce     0.875   0.078   0.375
S79     S     0.097   0.3532   0.097
S80     S     0.1531   0.3532   0.1531
Ce81     Ce     0.125   0.422   0.125
S82     S     0.3532   0.153   0.153
S83     S     0.3532   0.097   0.097
Ce84     Ce     0.422   0.125   0.125
S85     S     0.1531   0.153   0.3532
S86     S     0.097   0.097   0.3532
Ce87     Ce     0.125   0.125   0.422
S88     S     0.1468   0.847   0.347
S89     S     0.1468   0.903   0.403
Ce90     Ce     0.078   0.875   0.375
S91     S     0.403   0.903   0.1468
S92     S     0.347   0.847   0.1468
Ce93     Ce     0.375   0.875   0.078
S94     S     0.347   0.6032   0.903
S95     S     0.403   0.6032   0.847
Ce96     Ce     0.375   0.672   0.875
S97     S     0.6032   0.347   0.903
S98     S     0.6032   0.403   0.847
Ce99     Ce     0.672   0.375   0.875
S100     S     0.1468   0.347   0.847
S101     S     0.1468   0.403   0.903
Ce102     Ce     0.078   0.375   0.875
S103     S     0.6032   0.847   0.403
S104     S     0.6032   0.903   0.347
Ce105     Ce     0.672   0.875   0.375
S106     S     0.903   0.6032   0.347
S107     S     0.847   0.6032   0.403
Ce108     Ce     0.875   0.672   0.375
S109     S     0.847   0.347   0.1468
S110     S     0.903   0.403   0.1468
Ce111     Ce     0.875   0.375   0.078
S112     S     0.903   0.347   0.6032
S113     S     0.847   0.403   0.6032
Ce114     Ce     0.875   0.375   0.672
S115     S     0.8968   0.153   0.097
S116     S     0.8968   0.097   0.153
Ce117     Ce     0.828   0.125   0.125
S118     S     0.153   0.8968   0.097
S119     S     0.097   0.8968   0.153
Ce120     Ce     0.125   0.828   0.125
S121     S     0.403   0.1468   0.903
S122     S     0.347   0.1468   0.847
Ce123     Ce     0.375   0.078   0.875
S124     S     0.347   0.347   0.6468
S125     S     0.403   0.403   0.6468
Ce126     Ce     0.375   0.375   0.578
S127     S     0.097   0.153   0.8968
S128     S     0.1531   0.097   0.8968
Ce129     Ce     0.125   0.125   0.828
S130     S     0.347   0.403   0.1032
S131     S     0.403   0.347   0.1032
Ce132     Ce     0.375   0.375   0.172
S133     S     0.403   0.1032   0.347
S134     S     0.347   0.1032   0.403
Ce135     Ce     0.375   0.172   0.375
S136     S     0.347   0.6468   0.347
S137     S     0.403   0.6468   0.403
Ce138     Ce     0.375   0.578   0.375
S139     S     0.6468   0.403   0.403
S140     S     0.6468   0.347   0.347
Ce141     Ce     0.578   0.375   0.375
S142     S     0.1032   0.347   0.403
S143     S     0.1032   0.403   0.347
Ce144     Ce     0.172   0.375   0.375
He145     He     0.5562   0.25   0.8062
He146     He     0.25   0.5562   0.8062
He147     He     0.5562   0.8062   0.25
He148     He     0.8062   0.25   0.5562
He149     He     0.25   0.8062   0.5562
He150     He     0.8062   0.5562   0.25
He151     He     0.5562   0.5   0.9438
He152     He     0.5   0.5562   0.9438
He153     He     0.0   0.8062   0.6938
He154     He     0.8062   0.0   0.6938
He155     He     0.9438   0.5562   0.5
He156     He     0.75   0.9438   0.6938
He157     He     0.5   0.9438   0.5562
He158     He     0.9438   0.5   0.5562
He159     He     0.9438   0.75   0.6938
He160     He     0.5562   0.9438   0.5
He161     He     0.9438   0.0   0.0562
He162     He     0.9438   0.6938   0.75
He163     He     0.6938   0.8062   0.0
He164     He     0.6938   0.9438   0.75
He165     He     0.8062   0.6938   0.0
He166     He     0.6938   0.75   0.9438
He167     He     0.6938   0.0   0.8062
He168     He     0.0   0.6938   0.8062
He169     He     0.75   0.6938   0.9438
He170     He     0.4438   0.6938   0.25
He171     He     0.6938   0.25   0.4438
He172     He     0.25   0.4438   0.6938
He173     He     0.0562   0.3062   0.25
He174     He     0.5562   0.0   0.4438
He175     He     0.0562   0.9438   0.0
He176     He     0.0   0.0562   0.9438
He177     He     0.9438   0.1937   0.25
He178     He     0.25   0.0562   0.3062
He179     He     0.1938   0.25   0.9438
He180     He     0.5562   0.4438   0.0
He181     He     0.8062   0.75   0.0562
He182     He     0.25   0.1938   0.9438
He183     He     0.25   0.9438   0.1937
He184     He     0.1938   0.9438   0.25
He185     He     0.0562   0.8062   0.75
He186     He     0.4438   0.0   0.5562
He187     He     0.9438   0.25   0.1938
He188     He     0.75   0.0562   0.8062
He189     He     0.4438   0.5562   0.0
He190     He     0.8062   0.1938   0.5
He191     He     0.8062   0.0562   0.75
He192     He     0.5   0.8062   0.1938
He193     He     0.0563   0.5   0.4438
He194     He     0.8062   0.5   0.1938
He195     He     0.25   0.6938   0.4438
He196     He     0.0563   0.0   0.9438
He197     He     0.75   0.4438   0.1938
He198     He     0.0563   0.75   0.8062
He199     He     0.75   0.8062   0.0562
He200     He     0.5   0.1938   0.8062
He201     He     0.1938   0.5   0.8062
He202     He     0.0   0.4438   0.5562
He203     He     0.5562   0.3062   0.75
He204     He     0.1938   0.8062   0.5
He205     He     0.4438   0.1938   0.75
He206     He     0.9438   0.0562   0.0
He207     He     0.0   0.9438   0.0562
He208     He     0.75   0.5562   0.3062
He209     He     0.0   0.5562   0.4438
He210     He     0.6938   0.5   0.3062
He211     He     0.5   0.6938   0.3062
He212     He     0.5562   0.75   0.3062
He213     He     0.6938   0.4438   0.25
He214     He     0.4438   0.25   0.6938
He215     He     0.3062   0.5562   0.75
He216     He     0.5   0.3062   0.6938
He217     He     0.75   0.3062   0.5562
He218     He     0.6938   0.3062   0.5
He219     He     0.3062   0.75   0.5562
He220     He     0.3062   0.5   0.6938
He221     He     0.3062   0.6938   0.5
He222     He     0.5   0.4438   0.0562
He223     He     0.4438   0.0563   0.5
He224     He     0.0563   0.25   0.3062
He225     He     0.25   0.3062   0.0563
He226     He     0.4438   0.5   0.0562
He227     He     0.4438   0.75   0.1938
He228     He     0.3062   0.0562   0.25
He229     He     0.3062   0.25   0.0562
He230     He     0.0562   0.4438   0.5
He231     He     0.1938   0.4438   0.75
H232     H     0.2747   0.583   0.8768
H233     H     0.2253   0.6268   0.833
V234     V     0.6531   0.6531   0.7092
V235     V     0.6531   0.7092   0.6531
V236     V     0.7092   0.6531   0.6531
Er237     Er     0.7466   0.8027   0.6905
Er238     Er     0.6905   0.8027   0.7466
Ti239     Ti     0.6718   0.7841   0.6718
Er240     Er     0.8027   0.6905   0.7466
Er241     Er     0.8027   0.7466   0.6905
Ti242     Ti     0.7841   0.6718   0.6718
Er243     Er     0.7466   0.6905   0.8027
Er244     Er     0.6905   0.7466   0.8027
Ti245     Ti     0.6718   0.6718   0.7841
H246     H     0.917   0.6232   0.7253
H247     H     0.8732   0.667   0.7747
H248     H     0.7253   0.917   0.6232
H249     H     0.7747   0.8732   0.667
H250     H     0.917   0.7253   0.6232
H251     H     0.8732   0.7747   0.667
H252     H     0.6232   0.7253   0.917
H253     H     0.667   0.7747   0.8732
H254     H     0.6232   0.917   0.7253
H255     H     0.667   0.8732   0.7747
H256     H     0.7253   0.6232   0.917
H257     H     0.7747   0.667   0.8732
H258     H     0.6232   0.833   0.0247
H259     H     0.667   0.8768   0.9753
H260     H     0.833   0.6232   0.0247
H261     H     0.8768   0.667   0.9753
H262     H     0.6232   0.0247   0.833
H263     H     0.667   0.9753   0.8768
H264     H     0.833   0.0247   0.6232
H265     H     0.8768   0.9753   0.667
H266     H     0.0247   0.833   0.6232
H267     H     0.9753   0.8768   0.667
H268     H     0.0247   0.6232   0.833
H269     H     0.9753   0.667   0.8768
V270     V     0.0969   0.0969   0.7092
V271     V     0.0408   0.0969   0.6531
V272     V     0.0969   0.0408   0.6531
Er273     Er     0.9473   0.0034   0.6905
Er274     Er     0.9473   0.0595   0.7466
Ti275     Ti     0.9659   0.0782   0.6718
Er276     Er     0.0595   0.9473   0.7466
Er277     Er     0.0034   0.9473   0.6905
Ti278     Ti     0.0782   0.9659   0.6718
Er279     Er     0.0034   0.0595   0.8027
Er280     Er     0.0595   0.0034   0.8027
Ti281     Ti     0.0782   0.0782   0.7841
V282     V     0.6531   0.0969   0.0408
V283     V     0.6531   0.0408   0.0969
V284     V     0.7092   0.0969   0.0969
Er285     Er     0.6905   0.9473   0.0034
Er286     Er     0.7466   0.9473   0.0595
Ti287     Ti     0.6718   0.9659   0.0782
Er288     Er     0.7466   0.0595   0.9473
Er289     Er     0.6905   0.0034   0.9473
Ti290     Ti     0.6718   0.0782   0.9659
Er291     Er     0.8027   0.0034   0.0595
Er292     Er     0.8027   0.0595   0.0034
Ti293     Ti     0.7841   0.0782   0.0782
V294     V     0.0408   0.6531   0.0969
V295     V     0.0969   0.6531   0.0408
V296     V     0.0969   0.7092   0.0969
Er297     Er     0.0034   0.6905   0.9473
Er298     Er     0.0595   0.7466   0.9473
Ti299     Ti     0.0782   0.6718   0.9659
Er300     Er     0.9473   0.7466   0.0595
Er301     Er     0.9473   0.6905   0.0034
Ti302     Ti     0.9659   0.6718   0.0782
Er303     Er     0.0595   0.8027   0.0034
Er304     Er     0.0034   0.8027   0.0595
Ti305     Ti     0.0782   0.7841   0.0782
H306     H     0.7747   0.8768   0.083
H307     H     0.7253   0.833   0.1268
H308     H     0.8768   0.583   0.2747
H309     H     0.833   0.6268   0.2253
H310     H     0.4753   0.8732   0.583
H311     H     0.5247   0.917   0.6268
H312     H     0.4753   0.583   0.8732
H313     H     0.5247   0.6268   0.917
H314     H     0.2747   0.167   0.8732
H315     H     0.2253   0.1232   0.917
H316     H     0.2253   0.1268   0.333
H317     H     0.2747   0.083   0.3768
H318     H     0.8732   0.583   0.4753
H319     H     0.917   0.6268   0.5247
H320     H     0.583   0.4753   0.8732
H321     H     0.6268   0.5247   0.917
H322     H     0.583   0.2747   0.8768
H323     H     0.6268   0.2253   0.833
H324     H     0.8732   0.4753   0.583
H325     H     0.917   0.5247   0.6268
H326     H     0.2747   0.8768   0.583
H327     H     0.2253   0.833   0.6268
H328     H     0.583   0.8768   0.2747
H329     H     0.6268   0.833   0.2253
H330     H     0.583   0.8732   0.4753
H331     H     0.6268   0.917   0.5247
H332     H     0.8768   0.2747   0.583
H333     H     0.833   0.2253   0.6268
H334     H     0.167   0.8732   0.2747
H335     H     0.1232   0.917   0.2253
H336     H     0.2253   0.6232   0.417
H337     H     0.2747   0.667   0.3732
H338     H     0.083   0.7747   0.8768
H339     H     0.1268   0.7253   0.833
H340     H     0.8768   0.083   0.7747
H341     H     0.833   0.1268   0.7253
H342     H     0.7747   0.083   0.8768
H343     H     0.7253   0.1268   0.833
V344     V     0.7908   0.3469   0.8469
V345     V     0.8469   0.3469   0.7908
V346     V     0.8469   0.2908   0.8469
Er347     Er     0.6973   0.2534   0.8095
Er348     Er     0.6973   0.3095   0.7534
Ti349     Ti     0.7159   0.3282   0.8282
Er350     Er     0.8095   0.1973   0.7534
Er351     Er     0.7534   0.1973   0.8095
Ti352     Ti     0.8282   0.2159   0.8282
Er353     Er     0.8095   0.2534   0.6973
Er354     Er     0.7534   0.3095   0.6973
Ti355     Ti     0.8282   0.3282   0.7159
H356     H     0.8768   0.7747   0.083
H357     H     0.833   0.7253   0.1268
V358     V     0.7908   0.8469   0.3469
V359     V     0.8469   0.7908   0.3469
V360     V     0.8469   0.8469   0.2908
Er361     Er     0.8095   0.7534   0.1973
Er362     Er     0.7534   0.8095   0.1973
Ti363     Ti     0.8282   0.8282   0.2159
Er364     Er     0.8095   0.6973   0.2534
Er365     Er     0.7534   0.6973   0.3095
Ti366     Ti     0.8282   0.7159   0.3282
Er367     Er     0.6973   0.8095   0.2534
Er368     Er     0.6973   0.7534   0.3095
Ti369     Ti     0.7159   0.8282   0.3282
H370     H     0.083   0.8768   0.7747
H371     H     0.1268   0.833   0.7253
V372     V     0.3469   0.8469   0.7908
V373     V     0.3469   0.7908   0.8469
V374     V     0.2908   0.8469   0.8469
Er375     Er     0.1973   0.7534   0.8095
Er376     Er     0.1973   0.8095   0.7534
Ti377     Ti     0.2159   0.8282   0.8282
Er378     Er     0.2534   0.6973   0.8095
Er379     Er     0.3095   0.6973   0.7534
Ti380     Ti     0.3282   0.7159   0.8282
Er381     Er     0.2534   0.8095   0.6973
Er382     Er     0.3095   0.7534   0.6973
Ti383     Ti     0.3282   0.8282   0.7159
H384     H     0.8732   0.083   0.9753
H385     H     0.917   0.1268   0.0247
H386     H     0.7253   0.333   0.6268
H387     H     0.7747   0.3768   0.583
H388     H     0.7253   0.6268   0.333
H389     H     0.7747   0.583   0.3768
H390     H     0.6232   0.5247   0.333
H391     H     0.667   0.4753   0.3768
H392     H     0.6232   0.333   0.5247
H393     H     0.667   0.3768   0.4753
V394     V     0.6531   0.5408   0.5969
V395     V     0.6531   0.5969   0.5408
V396     V     0.7092   0.5969   0.5969
Er397     Er     0.7466   0.5595   0.4473
Er398     Er     0.6905   0.5034   0.4473
Ti399     Ti     0.6718   0.5782   0.4659
Er400     Er     0.6905   0.4473   0.5034
Er401     Er     0.7466   0.4473   0.5595
Ti402     Ti     0.6718   0.4659   0.5782
Er403     Er     0.8027   0.5034   0.5595
Er404     Er     0.8027   0.5595   0.5034
Ti405     Ti     0.7841   0.5782   0.5782
H406     H     0.8732   0.9753   0.083
H407     H     0.917   0.0247   0.1268
H408     H     0.6268   0.333   0.7253
H409     H     0.583   0.3768   0.7747
H410     H     0.333   0.6268   0.7253
H411     H     0.3768   0.583   0.7747
H412     H     0.5247   0.333   0.6232
H413     H     0.4753   0.3768   0.667
H414     H     0.333   0.5247   0.6232
H415     H     0.3768   0.4753   0.667
V416     V     0.5969   0.5408   0.6531
V417     V     0.5969   0.5969   0.7092
V418     V     0.5408   0.5969   0.6531
Er419     Er     0.5034   0.5595   0.8027
Er420     Er     0.5595   0.5034   0.8027
Ti421     Ti     0.5782   0.5782   0.7841
Er422     Er     0.4473   0.5034   0.6905
Er423     Er     0.4473   0.5595   0.7466
Ti424     Ti     0.4659   0.5782   0.6718
Er425     Er     0.5595   0.4473   0.7466
Er426     Er     0.5034   0.4473   0.6905
Ti427     Ti     0.5782   0.4659   0.6718
H428     H     0.333   0.7253   0.6268
H429     H     0.3768   0.7747   0.583
H430     H     0.6268   0.7253   0.333
H431     H     0.583   0.7747   0.3768
H432     H     0.5247   0.6232   0.333
H433     H     0.4753   0.667   0.3768
H434     H     0.333   0.6232   0.5247
H435     H     0.3768   0.667   0.4753
V436     V     0.5969   0.6531   0.5408
V437     V     0.5408   0.6531   0.5969
V438     V     0.5969   0.7092   0.5969
Er439     Er     0.4473   0.7466   0.5595
Er440     Er     0.4473   0.6905   0.5034
Ti441     Ti     0.4659   0.6718   0.5782
Er442     Er     0.5034   0.6905   0.4473
Er443     Er     0.5595   0.7466   0.4473
Ti444     Ti     0.5782   0.6718   0.4659
Er445     Er     0.5595   0.8027   0.5034
Er446     Er     0.5034   0.8027   0.5595
Ti447     Ti     0.5782   0.7841   0.5782
H448     H     0.083   0.9753   0.8732
H449     H     0.1268   0.0247   0.917
H450     H     0.6232   0.417   0.2253
H451     H     0.667   0.3732   0.2747
H452     H     0.8732   0.2747   0.167
H453     H     0.917   0.2253   0.1232
H454     H     0.8768   0.167   0.4753
H455     H     0.833   0.1232   0.5247
H456     H     0.6232   0.2253   0.417
H457     H     0.667   0.2747   0.3732
V458     V     0.6531   0.1531   0.2092
V459     V     0.6531   0.2092   0.1531
V460     V     0.7092   0.1531   0.1531
Er461     Er     0.8027   0.2466   0.1905
Er462     Er     0.8027   0.1905   0.2466
Ti463     Ti     0.7841   0.1718   0.1718
Er464     Er     0.6905   0.2466   0.3027
Er465     Er     0.7466   0.1905   0.3027
Ti466     Ti     0.6718   0.1718   0.2841
Er467     Er     0.6905   0.3027   0.2466
Er468     Er     0.7466   0.3027   0.1905
Ti469     Ti     0.6718   0.2841   0.1718
H470     H     0.7253   0.1232   0.417
H471     H     0.7747   0.167   0.3732
V472     V     0.7908   0.9031   0.4031
V473     V     0.8469   0.9031   0.4592
V474     V     0.8469   0.9592   0.4031
Er475     Er     0.6973   0.9405   0.4966
Er476     Er     0.6973   0.9966   0.4405
Ti477     Ti     0.7159   0.9218   0.4218
Er478     Er     0.8095   0.0527   0.4966
Er479     Er     0.7534   0.0527   0.4405
Ti480     Ti     0.8282   0.0341   0.4218
Er481     Er     0.8095   0.9966   0.5527
Er482     Er     0.7534   0.9405   0.5527
Ti483     Ti     0.8282   0.9218   0.5341
H484     H     0.8768   0.4753   0.167
H485     H     0.833   0.5247   0.1232
H486     H     0.7253   0.417   0.1232
H487     H     0.7747   0.3732   0.167
V488     V     0.8469   0.4592   0.9031
V489     V     0.7908   0.4031   0.9031
V490     V     0.8469   0.4031   0.9592
Er491     Er     0.7534   0.5527   0.9405
Er492     Er     0.8095   0.5527   0.9966
Ti493     Ti     0.8282   0.5341   0.9218
Er494     Er     0.6973   0.4405   0.9966
Er495     Er     0.6973   0.4966   0.9405
Ti496     Ti     0.7159   0.4218   0.9218
Er497     Er     0.8095   0.4966   0.0527
Er498     Er     0.7534   0.4405   0.0527
Ti499     Ti     0.8282   0.4218   0.0341
H500     H     0.167   0.4753   0.8768
H501     H     0.1232   0.5247   0.833
V502     V     0.9031   0.4031   0.7908
V503     V     0.9031   0.4592   0.8469
V504     V     0.9592   0.4031   0.8469
Er505     Er     0.9405   0.4966   0.6973
Er506     Er     0.9966   0.4405   0.6973
Ti507     Ti     0.9218   0.4218   0.7159
Er508     Er     0.0527   0.4405   0.7534
Er509     Er     0.0527   0.4966   0.8095
Ti510     Ti     0.0341   0.4218   0.8282
Er511     Er     0.9405   0.5527   0.7534
Er512     Er     0.9966   0.5527   0.8095
Ti513     Ti     0.9218   0.5341   0.8282
H514     H     0.417   0.2253   0.6232
H515     H     0.3732   0.2747   0.667
H516     H     0.2253   0.417   0.6232
H517     H     0.2747   0.3732   0.667
H518     H     0.1232   0.417   0.7253
H519     H     0.167   0.3732   0.7747
V520     V     0.1531   0.1531   0.7092
V521     V     0.2092   0.1531   0.6531
V522     V     0.1531   0.2092   0.6531
Er523     Er     0.2466   0.1905   0.8027
Er524     Er     0.1905   0.2466   0.8027
Ti525     Ti     0.1718   0.1718   0.7841
Er526     Er     0.2466   0.3027   0.6905
Er527     Er     0.1905   0.3027   0.7466
Ti528     Ti     0.1718   0.2841   0.6718
Er529     Er     0.3027   0.2466   0.6905
Er530     Er     0.3027   0.1905   0.7466
Ti531     Ti     0.2841   0.1718   0.6718
H532     H     0.4753   0.8768   0.167
H533     H     0.5247   0.833   0.1232
H534     H     0.167   0.8768   0.4753
H535     H     0.1232   0.833   0.5247
V536     V     0.9031   0.7908   0.4031
V537     V     0.9592   0.8469   0.4031
V538     V     0.9031   0.8469   0.4592
Er539     Er     0.9405   0.7534   0.5527
Er540     Er     0.9966   0.8095   0.5527
Ti541     Ti     0.9218   0.8282   0.5341
Er542     Er     0.0527   0.7534   0.4405
Er543     Er     0.0527   0.8095   0.4966
Ti544     Ti     0.0341   0.8282   0.4218
Er545     Er     0.9405   0.6973   0.4966
Er546     Er     0.9966   0.6973   0.4405
Ti547     Ti     0.9218   0.7159   0.4218
V548     V     0.4031   0.8469   0.9592
V549     V     0.4031   0.7908   0.9031
V550     V     0.4592   0.8469   0.9031
Er551     Er     0.4405   0.7534   0.0527
Er552     Er     0.4966   0.8095   0.0527
Ti553     Ti     0.4218   0.8282   0.0341
Er554     Er     0.4966   0.6973   0.9405
Er555     Er     0.4405   0.6973   0.9966
Ti556     Ti     0.4218   0.7159   0.9218
Er557     Er     0.5527   0.7534   0.9405
Er558     Er     0.5527   0.8095   0.9966
Ti559     Ti     0.5341   0.8282   0.9218
H560     H     0.417   0.6232   0.2253
H561     H     0.3732   0.667   0.2747
H562     H     0.417   0.7253   0.1232
H563     H     0.3732   0.7747   0.167
H564     H     0.1232   0.7253   0.417
H565     H     0.167   0.7747   0.3732
V566     V     0.2092   0.6531   0.1531
V567     V     0.1531   0.6531   0.2092
V568     V     0.1531   0.7092   0.1531
Er569     Er     0.2466   0.8027   0.1905
Er570     Er     0.1905   0.8027   0.2466
Ti571     Ti     0.1718   0.7841   0.1718
Er572     Er     0.3027   0.6905   0.2466
Er573     Er     0.3027   0.7466   0.1905
Ti574     Ti     0.2841   0.6718   0.1718
Er575     Er     0.2466   0.6905   0.3027
Er576     Er     0.1905   0.7466   0.3027
Ti577     Ti     0.1718   0.6718   0.2841
H578     H     0.417   0.6268   0.0247
H579     H     0.3732   0.583   0.9753
H580     H     0.8732   0.167   0.2747
H581     H     0.917   0.1232   0.2253
H582     H     0.417   0.0247   0.6268
H583     H     0.3732   0.9753   0.583
H584     H     0.0247   0.417   0.6268
H585     H     0.9753   0.3732   0.583
H586     H     0.167   0.2747   0.8732
H587     H     0.1232   0.2253   0.917
H588     H     0.6268   0.417   0.0247
H589     H     0.583   0.3732   0.9753
H590     H     0.6268   0.0247   0.417
H591     H     0.583   0.9753   0.3732
H592     H     0.0247   0.6268   0.417
H593     H     0.9753   0.583   0.3732
V594     V     0.4592   0.4031   0.3469
V595     V     0.4031   0.4592   0.3469
V596     V     0.4031   0.4031   0.2908
Er597     Er     0.4966   0.5527   0.3095
Er598     Er     0.4405   0.5527   0.2534
Ti599     Ti     0.4218   0.5341   0.3282
Er600     Er     0.4405   0.4966   0.1973
Er601     Er     0.4966   0.4405   0.1973
Ti602     Ti     0.4218   0.4218   0.2159
Er603     Er     0.5527   0.4405   0.2534
Er604     Er     0.5527   0.4966   0.3095
Ti605     Ti     0.5341   0.4218   0.3282
H606     H     0.9753   0.8732   0.083
H607     H     0.0247   0.917   0.1268
H608     H     0.083   0.8732   0.9753
H609     H     0.1268   0.917   0.0247
H610     H     0.9753   0.083   0.8732
H611     H     0.0247   0.1268   0.917
H612     H     0.1268   0.333   0.2253
H613     H     0.083   0.3768   0.2747
H614     H     0.083   0.3732   0.4753
H615     H     0.1268   0.417   0.5247
V616     V     0.3469   0.4592   0.4031
V617     V     0.3469   0.4031   0.4592
V618     V     0.2908   0.4031   0.4031
Er619     Er     0.3095   0.4966   0.5527
Er620     Er     0.2534   0.4405   0.5527
Ti621     Ti     0.3282   0.4218   0.5341
Er622     Er     0.1973   0.4405   0.4966
Er623     Er     0.1973   0.4966   0.4405
Ti624     Ti     0.2159   0.4218   0.4218
Er625     Er     0.2534   0.5527   0.4405
Er626     Er     0.3095   0.5527   0.4966
Ti627     Ti     0.3282   0.5341   0.4218
H628     H     0.4753   0.083   0.3732
H629     H     0.5247   0.1268   0.417
V630     V     0.4031   0.2908   0.4031
V631     V     0.4592   0.3469   0.4031
V632     V     0.4031   0.3469   0.4592
Er633     Er     0.4405   0.2534   0.5527
Er634     Er     0.4966   0.3095   0.5527
Ti635     Ti     0.4218   0.3282   0.5341
Er636     Er     0.5527   0.2534   0.4405
Er637     Er     0.5527   0.3095   0.4966
Ti638     Ti     0.5341   0.3282   0.4218
Er639     Er     0.4966   0.1973   0.4405
Er640     Er     0.4405   0.1973   0.4966
Ti641     Ti     0.4218   0.2159   0.4218
H642     H     0.3732   0.4753   0.083
H643     H     0.417   0.5247   0.1268
H644     H     0.2747   0.8732   0.167
H645     H     0.2253   0.917   0.1232
H646     H     0.5247   0.417   0.1268
H647     H     0.4753   0.3732   0.083
V648     V     0.5969   0.2092   0.0969
V649     V     0.5969   0.1531   0.0408
V650     V     0.5408   0.1531   0.0969
Er651     Er     0.5595   0.2466   0.9473
Er652     Er     0.5034   0.1905   0.9473
Ti653     Ti     0.5782   0.1718   0.9659
Er654     Er     0.4473   0.2466   0.0595
Er655     Er     0.4473   0.1905   0.0034
Ti656     Ti     0.4659   0.1718   0.0782
Er657     Er     0.5595   0.3027   0.0034
Er658     Er     0.5034   0.3027   0.0595
Ti659     Ti     0.5782   0.2841   0.0782
H660     H     0.1268   0.5247   0.417
H661     H     0.083   0.4753   0.3732
V662     V     0.0969   0.5969   0.2092
V663     V     0.0969   0.5408   0.1531
V664     V     0.0408   0.5969   0.1531
Er665     Er     0.9473   0.5595   0.2466
Er666     Er     0.9473   0.5034   0.1905
Ti667     Ti     0.9659   0.5782   0.1718
Er668     Er     0.0595   0.4473   0.2466
Er669     Er     0.0034   0.4473   0.1905
Ti670     Ti     0.0782   0.4659   0.1718
Er671     Er     0.0034   0.5595   0.3027
Er672     Er     0.0595   0.5034   0.3027
Ti673     Ti     0.0782   0.5782   0.2841
H674     H     0.0247   0.333   0.1232
H675     H     0.9753   0.3768   0.167
H676     H     0.1232   0.333   0.0247
H677     H     0.167   0.3768   0.9753
V678     V     0.9031   0.2908   0.9031
V679     V     0.9592   0.3469   0.9031
V680     V     0.9031   0.3469   0.9592
Er681     Er     0.9405   0.2534   0.0527
Er682     Er     0.9966   0.3095   0.0527
Ti683     Ti     0.9218   0.3282   0.0341
Er684     Er     0.0527   0.2534   0.9405
Er685     Er     0.0527   0.3095   0.9966
Ti686     Ti     0.0341   0.3282   0.9218
Er687     Er     0.9405   0.1973   0.9966
Er688     Er     0.9966   0.1973   0.9405
Ti689     Ti     0.9218   0.2159   0.9218
H690     H     0.333   0.1232   0.0247
H691     H     0.3768   0.167   0.9753
H692     H     0.333   0.0247   0.1232
H693     H     0.3768   0.9753   0.167
V694     V     0.3469   0.9031   0.9592
V695     V     0.3469   0.9592   0.9031
V696     V     0.2908   0.9031   0.9031
Er697     Er     0.2534   0.0527   0.9405
Er698     Er     0.3095   0.0527   0.9966
Ti699     Ti     0.3282   0.0341   0.9218
Er700     Er     0.1973   0.9405   0.9966
Er701     Er     0.1973   0.9966   0.9405
Ti702     Ti     0.2159   0.9218   0.9218
Er703     Er     0.3095   0.9966   0.0527
Er704     Er     0.2534   0.9405   0.0527
Ti705     Ti     0.3282   0.9218   0.0341
H706     H     0.2253   0.333   0.1268
H707     H     0.2747   0.3768   0.083
V708     V     0.1531   0.5408   0.0969
V709     V     0.1531   0.5969   0.0408
V710     V     0.2092   0.5969   0.0969
Er711     Er     0.2466   0.5595   0.9473
Er712     Er     0.1905   0.5034   0.9473
Ti713     Ti     0.1718   0.5782   0.9659
Er714     Er     0.3027   0.5034   0.0595
Er715     Er     0.3027   0.5595   0.0034
Ti716     Ti     0.2841   0.5782   0.0782
Er717     Er     0.2466   0.4473   0.0595
Er718     Er     0.1905   0.4473   0.0034
Ti719     Ti     0.1718   0.4659   0.0782
H720     H     0.3768   0.2747   0.083
H721     H     0.333   0.2253   0.1268
V722     V     0.5969   0.0408   0.1531
V723     V     0.5969   0.0969   0.2092
V724     V     0.5408   0.0969   0.1531
Er725     Er     0.5034   0.0595   0.3027
Er726     Er     0.5595   0.0034   0.3027
Ti727     Ti     0.5782   0.0782   0.2841
Er728     Er     0.5595   0.9473   0.2466
Er729     Er     0.5034   0.9473   0.1905
Ti730     Ti     0.5782   0.9659   0.1718
Er731     Er     0.4473   0.0034   0.1905
Er732     Er     0.4473   0.0595   0.2466
Ti733     Ti     0.4659   0.0782   0.1718
H734     H     0.333   0.1268   0.2253
H735     H     0.3768   0.083   0.2747
V736     V     0.2908   0.3469   0.3469
V737     V     0.3469   0.2908   0.3469
V738     V     0.3469   0.3469   0.2908
Er739     Er     0.1973   0.2534   0.3095
Er740     Er     0.1973   0.3095   0.2534
Ti741     Ti     0.2159   0.3282   0.3282
Er742     Er     0.3095   0.1973   0.2534
Er743     Er     0.2534   0.1973   0.3095
Ti744     Ti     0.3282   0.2159   0.3282
Er745     Er     0.2534   0.3095   0.1973
Er746     Er     0.3095   0.2534   0.1973
Ti747     Ti     0.3282   0.3282   0.2159
H748     H     0.417   0.1268   0.5247
H749     H     0.3732   0.083   0.4753
V750     V     0.1531   0.0969   0.5408
V751     V     0.1531   0.0408   0.5969
V752     V     0.2092   0.0969   0.5969
Er753     Er     0.2466   0.0595   0.4473
Er754     Er     0.1905   0.0034   0.4473
Ti755     Ti     0.1718   0.0782   0.4659
Er756     Er     0.2466   0.9473   0.5595
Er757     Er     0.1905   0.9473   0.5034
Ti758     Ti     0.1718   0.9659   0.5782
Er759     Er     0.3027   0.0034   0.5595
Er760     Er     0.3027   0.0595   0.5034
Ti761     Ti     0.2841   0.0782   0.5782
H762     H     0.1232   0.0247   0.333
H763     H     0.167   0.9753   0.3768
H764     H     0.0247   0.1232   0.333
H765     H     0.9753   0.167   0.3768
V766     V     0.9031   0.9592   0.3469
V767     V     0.9592   0.9031   0.3469
V768     V     0.9031   0.9031   0.2908
Er769     Er     0.9966   0.9405   0.1973
Er770     Er     0.9405   0.9966   0.1973
Ti771     Ti     0.9218   0.9218   0.2159
Er772     Er     0.0527   0.9405   0.2534
Er773     Er     0.0527   0.9966   0.3095
Ti774     Ti     0.0341   0.9218   0.3282
Er775     Er     0.9405   0.0527   0.2534
Er776     Er     0.9966   0.0527   0.3095
Ti777     Ti     0.9218   0.0341   0.3282
H778     H     0.1268   0.2253   0.333
H779     H     0.083   0.2747   0.3768
V780     V     0.0408   0.1531   0.5969
V781     V     0.0969   0.2092   0.5969
V782     V     0.0969   0.1531   0.5408
Er783     Er     0.9473   0.2466   0.5595
Er784     Er     0.9473   0.1905   0.5034
Ti785     Ti     0.9659   0.1718   0.5782
Er786     Er     0.0595   0.3027   0.5034
Er787     Er     0.0034   0.3027   0.5595
Ti788     Ti     0.0782   0.2841   0.5782
Er789     Er     0.0034   0.1905   0.4473
Er790     Er     0.0595   0.2466   0.4473
Ti791     Ti     0.0782   0.1718   0.4659
H792     H     0.4753   0.167   0.8768
H793     H     0.5247   0.1232   0.833
H794     H     0.417   0.1232   0.7253
H795     H     0.3732   0.167   0.7747
V796     V     0.4031   0.9031   0.7908
V797     V     0.4031   0.9592   0.8469
V798     V     0.4592   0.9031   0.8469
Er799     Er     0.5527   0.9966   0.8095
Er800     Er     0.5527   0.9405   0.7534
Ti801     Ti     0.5341   0.9218   0.8282
Er802     Er     0.4966   0.0527   0.8095
Er803     Er     0.4405   0.0527   0.7534
Ti804     Ti     0.4218   0.0341   0.8282
Er805     Er     0.4966   0.9405   0.6973
Er806     Er     0.4405   0.9966   0.6973
Ti807     Ti     0.4218   0.9218   0.7159
He808     He     0.75   0.1938   0.4438
He809     He     0.3062   0.0   0.1938
He810     He     0.1938   0.3062   0.0
He811     He     0.1938   0.75   0.4438
He812     He     0.0   0.3062   0.1938
He813     He     0.3062   0.1938   0.0
He814     He     0.5   0.0562   0.4438
He815     He     0.0   0.1938   0.3062
He816     He     0.1938   0.0   0.3062
loop_
_geom_bond_atom_site_label_1
_geom_bond_atom_site_label_2
_geom_bond_distance
_geom_bond_site_symmetry_2
_ccdc_geom_bond_type
S1     S2    9.992   .     S
S1     Ce3    9.994   .     S
S1     H392    10.006   .     S
S1     H412    10.006   .     S
S2     Ce3    9.994   .     S
S2     H408    10.006   .     S
S2     H386    10.006   .     S
Ce3     Ti402    10.005   .     S
Ce3     Ti427    10.005   .     S
S4     S5    9.992   .     S
S4     Ce6    9.994   .     S
S4     H434    10.006   .     S
S4     H414    10.006   .     S
S5     Ce6    9.994   .     S
S5     H428    10.006   .     S
S5     H410    10.006   .     S
Ce6     Ti441    10.005   .     S
Ce6     Ti424    10.005   .     S
S7     S8    9.992   .     S
S7     Ce9    9.994   .     S
S7     H250    10.006   .     S
S7     H319    10.006   .     S
S8     Ce9    9.994   .     S
S8     H325    10.006   .     S
S8     H246    10.006   .     S
Ce9     Ti242    10.005   .     S
Ce9     Ti405    10.005   .     S
S10     S11    9.992   .     S
S10     Ce12    9.994   .     S
S10     H254    10.006   .     S
S10     H311    10.006   .     S
S11     Ce12    9.994   .     S
S11     H331    10.006   .     S
S11     H248    10.006   .     S
Ce12     Ti239    10.005   .     S
Ce12     Ti447    10.005   .     S
S13     S14    9.992   .     S
S13     Ce15    9.994   .     S
S13     H256    10.006   .     S
S13     H321    10.006   .     S
S14     Ce15    9.994   .     S
S14     H252    10.006   .     S
S14     H313    10.006   .     S
Ce15     Ti245    10.005   .     S
Ce15     Ti421    10.005   .     S
S16     S17    9.992   .     S
S16     Ce18    9.994   .     S
S16     H432    10.006   .     S
S16     H390    10.006   .     S
S17     Ce18    9.994   .     S
S17     H388    10.006   .     S
S17     H430    10.006   .     S
Ce18     Ti399    10.005   .     S
Ce18     Ti444    10.005   .     S
S19     S20    9.992   .     S
S19     Ce21    9.994   .     S
S19     H263    10.006   .     S
S19     H259    10.006   .     S
S20     Ce21    9.994   .     S
S20     H253    10.006   .     S
S20     H255    10.006   .     S
Ce21     Ti801    10.005   .     S
Ce21     Ti559    10.005   .     S
S22     S23    9.992   .     S
S22     Ce24    9.994   .     S
S22     H257    10.006   .     S
S22     H247    10.006   .     S
S23     Ce24    9.994   .     S
S23     H269    10.006   .     S
S23     H261    10.006   .     S
Ce24     Ti493    10.005   .     S
Ce24     Ti513    10.005   .     S
S25     S26    9.992   .     S
S25     Ce27    9.994   .     S
S25     H265    10.006   .     S
S25     H267    10.006   .     S
S26     Ce27    9.994   .     S
S26     H251    10.006   .     S
S26     H249    10.006   .     S
Ce27     Ti483    10.005   .     S
Ce27     Ti541    10.005   .     S
S28     S29    9.992   .     S
S28     Ce30    9.994   .     S
S28     H560    10.006   .     S
S28     H643    10.006   .     S
S29     Ce30    9.994   .     S
S29     H578    10.006   .     S
S29     H562    10.006   .     S
Ce30     Ti716    10.005   .     S
Ce30     Ti574    10.005   .     S
S31     S32    9.992   .     S
S31     Ce33    9.994   .     S
S31     H514    10.006   .     S
S31     H748    10.006   .     S
S32     Ce33    9.994   .     S
S32     H582    10.006   .     S
S32     H794    10.006   .     S
Ce33     Ti531    10.005   .     S
Ce33     Ti761    10.005   .     S
S34     S35    9.992   .     S
S34     Ce36    9.994   .     S
S34     H456    10.006   .     S
S34     H629    10.006   .     S
S35     Ce36    9.994   .     S
S35     H590    10.006   .     S
S35     H470    10.006   .     S
Ce36     Ti466    10.005   .     S
Ce36     Ti727    10.005   .     S
S37     S38    9.992   .     S
S37     Ce39    9.994   .     S
S37     H608    10.006   .     S
S37     H338    10.006   .     S
S38     Ce39    9.994   .     S
S38     H370    10.006   .     S
S38     H448    10.006   .     S
Ce39     Ti702    10.005   .     S
Ce39     Ti377    10.005   .     S
S40     S41    9.992   .     S
S40     Ce42    9.994   .     S
S40     H342    10.006   .     S
S40     H384    10.006   .     S
S41     Ce42    9.994   .     S
S41     H610    10.006   .     S
S41     H340    10.006   .     S
Ce42     Ti352    10.005   .     S
Ce42     Ti689    10.005   .     S
S43     S44    9.992   .     S
S43     Ce45    9.994   .     S
S43     H583    10.006   .     S
S43     H326    10.006   .     S
S44     Ce45    9.994   .     S
S44     H429    10.006   .     S
S44     H310    10.006   .     S
Ce45     Ti383    10.005   .     S
Ce45     Ti807    10.005   .     S
S46     S47    9.992   .     S
S46     Ce48    9.994   .     S
S46     H356    10.006   .     S
S46     H606    10.006   .     S
S47     Ce48    9.994   .     S
S47     H406    10.006   .     S
S47     H306    10.006   .     S
Ce48     Ti771    10.005   .     S
Ce48     Ti363    10.005   .     S
S49     S50    9.992   .     S
S49     Ce51    9.994   .     S
S49     H584    10.006   .     S
S49     H518    10.006   .     S
S50     Ce51    9.994   .     S
S50     H516    10.006   .     S
S50     H615    10.006   .     S
Ce51     Ti788    10.005   .     S
Ce51     Ti528    10.005   .     S
S52     S53    9.992   .     S
S52     Ce54    9.994   .     S
S52     H307    10.006   .     S
S52     H329    10.006   .     S
S53     Ce54    9.994   .     S
S53     H258    10.006   .     S
S53     H533    10.006   .     S
Ce54     Ti287    10.005   .     S
Ce54     Ti730    10.005   .     S
S55     S56    9.992   .     S
S55     Ce57    9.994   .     S
S55     H260    10.006   .     S
S55     H485    10.006   .     S
S56     Ce57    9.994   .     S
S56     H309    10.006   .     S
S56     H357    10.006   .     S
Ce57     Ti302    10.005   .     S
Ce57     Ti667    10.005   .     S
S58     S59    9.992   .     S
S58     Ce60    9.994   .     S
S58     H450    10.006   .     S
S58     H646    10.006   .     S
S59     Ce60    9.994   .     S
S59     H588    10.006   .     S
S59     H486    10.006   .     S
Ce60     Ti659    10.005   .     S
Ce60     Ti469    10.005   .     S
S61     S62    9.992   .     S
S61     Ce63    9.994   .     S
S61     H333    10.006   .     S
S61     H341    10.006   .     S
S62     Ce63    9.994   .     S
S62     H264    10.006   .     S
S62     H455    10.006   .     S
Ce63     Ti785    10.005   .     S
Ce63     Ti275    10.005   .     S
S64     S65    9.992   .     S
S64     Ce66    9.994   .     S
S64     H371    10.006   .     S
S64     H327    10.006   .     S
S65     Ce66    9.994   .     S
S65     H266    10.006   .     S
S65     H535    10.006   .     S
Ce66     Ti758    10.005   .     S
Ce66     Ti278    10.005   .     S
S67     S68    9.992   .     S
S67     Ce69    9.994   .     S
S67     H323    10.006   .     S
S67     H343    10.006   .     S
S68     Ce69    9.994   .     S
S68     H262    10.006   .     S
S68     H793    10.006   .     S
Ce69     Ti653    10.005   .     S
Ce69     Ti290    10.005   .     S
S70     S71    9.992   .     S
S70     Ce72    9.994   .     S
S70     H268    10.006   .     S
S70     H501    10.006   .     S
S71     Ce72    9.994   .     S
S71     H339    10.006   .     S
S71     H233    10.006   .     S
Ce72     Ti713    10.005   .     S
Ce72     Ti299    10.005   .     S
S73     S74    9.992   .     S
S73     Ce75    9.994   .     S
S73     H592    10.006   .     S
S73     H564    10.006   .     S
S74     Ce75    9.994   .     S
S74     H660    10.006   .     S
S74     H336    10.006   .     S
Ce75     Ti577    10.005   .     S
Ce75     Ti673    10.005   .     S
S76     S77    9.992   .     S
S76     Ce78    9.994   .     S
S76     H765    10.006   .     S
S76     H454    10.006   .     S
S77     Ce78    9.994   .     S
S77     H471    10.006   .     S
S77     H580    10.006   .     S
Ce78     Ti777    10.005   .     S
Ce78     Ti480    10.005   .     S
S79     S80    9.992   .     S
S79     Ce81    9.994   .     S
S79     H676    10.006   .     S
S79     H674    10.006   .     S
S80     Ce81    9.994   .     S
S80     H706    10.006   .     S
S80     H612    10.006   .     S
Ce81     Ti719    10.005   .     S
Ce81     Ti670    10.005   .     S
S82     S83    9.992   .     S
S82     Ce84    9.994   .     S
S82     H721    10.006   .     S
S82     H734    10.006   .     S
S83     Ce84    9.994   .     S
S83     H692    10.006   .     S
S83     H690    10.006   .     S
Ce84     Ti733    10.005   .     S
Ce84     Ti656    10.005   .     S
S85     S86    9.992   .     S
S85     Ce87    9.994   .     S
S85     H778    10.006   .     S
S85     H316    10.006   .     S
S86     Ce87    9.994   .     S
S86     H764    10.006   .     S
S86     H762    10.006   .     S
Ce87     Ti791    10.005   .     S
Ce87     Ti755    10.005   .     S
S88     S89    9.992   .     S
S88     Ce90    9.994   .     S
S88     H565    10.006   .     S
S88     H334    10.006   .     S
S89     Ce90    9.994   .     S
S89     H763    10.006   .     S
S89     H534    10.006   .     S
Ce90     Ti544    10.005   .     S
Ce90     Ti774    10.005   .     S
S91     S92    9.992   .     S
S91     Ce93    9.994   .     S
S91     H693    10.006   .     S
S91     H532    10.006   .     S
S92     Ce93    9.994   .     S
S92     H563    10.006   .     S
S92     H644    10.006   .     S
Ce93     Ti553    10.005   .     S
Ce93     Ti705    10.005   .     S
S94     S95    9.992   .     S
S94     Ce96    9.994   .     S
S94     H579    10.006   .     S
S94     H232    10.006   .     S
S95     Ce96    9.994   .     S
S95     H411    10.006   .     S
S95     H312    10.006   .     S
Ce96     Ti556    10.005   .     S
Ce96     Ti380    10.005   .     S
S97     S98    9.992   .     S
S97     Ce99    9.994   .     S
S97     H589    10.006   .     S
S97     H322    10.006   .     S
S98     Ce99    9.994   .     S
S98     H409    10.006   .     S
S98     H320    10.006   .     S
Ce99     Ti349    10.005   .     S
Ce99     Ti496    10.005   .     S
S100     S101    9.992   .     S
S100     Ce102    9.994   .     S
S100     H519    10.006   .     S
S100     H586    10.006   .     S
S101     Ce102    9.994   .     S
S101     H677    10.006   .     S
S101     H500    10.006   .     S
Ce102     Ti510    10.005   .     S
Ce102     Ti686    10.005   .     S
S103     S104    9.992   .     S
S103     Ce105    9.994   .     S
S103     H431    10.006   .     S
S103     H330    10.006   .     S
S104     Ce105    9.994   .     S
S104     H591    10.006   .     S
S104     H328    10.006   .     S
Ce105     Ti477    10.005   .     S
Ce105     Ti369    10.005   .     S
S106     S107    9.992   .     S
S106     Ce108    9.994   .     S
S106     H593    10.006   .     S
S106     H308    10.006   .     S
S107     Ce108    9.994   .     S
S107     H389    10.006   .     S
S107     H318    10.006   .     S
Ce108     Ti547    10.005   .     S
Ce108     Ti366    10.005   .     S
S109     S110    9.992   .     S
S109     Ce111    9.994   .     S
S109     H487    10.006   .     S
S109     H452    10.006   .     S
S110     Ce111    9.994   .     S
S110     H675    10.006   .     S
S110     H484    10.006   .     S
Ce111     Ti683    10.005   .     S
Ce111     Ti499    10.005   .     S
S112     S113    9.992   .     S
S112     Ce114    9.994   .     S
S112     H585    10.006   .     S
S112     H332    10.006   .     S
S113     Ce114    9.994   .     S
S113     H387    10.006   .     S
S113     H324    10.006   .     S
Ce114     Ti355    10.005   .     S
Ce114     Ti507    10.005   .     S
S115     S116    9.992   .     S
S115     Ce117    9.994   .     S
S115     H453    10.006   .     S
S115     H385    10.006   .     S
S116     Ce117    9.994   .     S
S116     H407    10.006   .     S
S116     H581    10.006   .     S
Ce117     Ti463    10.005   .     S
Ce117     Ti293    10.005   .     S
S118     S119    9.992   .     S
S118     Ce120    9.994   .     S
S118     H609    10.006   .     S
S118     H645    10.006   .     S
S119     Ce120    9.994   .     S
S119     H335    10.006   .     S
S119     H607    10.006   .     S
Ce120     Ti305    10.005   .     S
Ce120     Ti571    10.005   .     S
S121     S122    9.992   .     S
S121     Ce123    9.994   .     S
S121     H691    10.006   .     S
S121     H792    10.006   .     S
S122     Ce123    9.994   .     S
S122     H795    10.006   .     S
S122     H314    10.006   .     S
Ce123     Ti804    10.005   .     S
Ce123     Ti699    10.005   .     S
S124     S125    9.992   .     S
S124     Ce126    9.994   .     S
S124     H515    10.006   .     S
S124     H517    10.006   .     S
S125     Ce126    9.994   .     S
S125     H415    10.006   .     S
S125     H413    10.006   .     S
Ce126     Ti621    10.005   .     S
Ce126     Ti635    10.005   .     S
S127     S128    9.992   .     S
S127     Ce129    9.994   .     S
S127     H587    10.006   .     S
S127     H611    10.006   .     S
S128     Ce129    9.994   .     S
S128     H449    10.006   .     S
S128     H315    10.006   .     S
Ce129     Ti525    10.005   .     S
Ce129     Ti281    10.005   .     S
S130     S131    9.992   .     S
S130     Ce132    9.994   .     S
S130     H642    10.006   .     S
S130     H707    10.006   .     S
S131     Ce132    9.994   .     S
S131     H720    10.006   .     S
S131     H647    10.006   .     S
Ce132     Ti602    10.005   .     S
Ce132     Ti747    10.005   .     S
S133     S134    9.992   .     S
S133     Ce135    9.994   .     S
S133     H735    10.006   .     S
S133     H628    10.006   .     S
S134     Ce135    9.994   .     S
S134     H317    10.006   .     S
S134     H749    10.006   .     S
Ce135     Ti641    10.005   .     S
Ce135     Ti744    10.005   .     S
S136     S137    9.992   .     S
S136     Ce138    9.994   .     S
S136     H337    10.006   .     S
S136     H561    10.006   .     S
S137     Ce138    9.994   .     S
S137     H433    10.006   .     S
S137     H435    10.006   .     S
Ce138     Ti599    10.005   .     S
Ce138     Ti627    10.005   .     S
S139     S140    9.992   .     S
S139     Ce141    9.994   .     S
S139     H393    10.006   .     S
S139     H391    10.006   .     S
S140     Ce141    9.994   .     S
S140     H457    10.006   .     S
S140     H451    10.006   .     S
Ce141     Ti638    10.005   .     S
Ce141     Ti605    10.005   .     S
S142     S143    9.992   .     S
S142     Ce144    9.994   .     S
S142     H614    10.006   .     S
S142     H779    10.006   .     S
S143     Ce144    9.994   .     S
S143     H661    10.006   .     S
S143     H613    10.006   .     S
Ce144     Ti741    10.005   .     S
Ce144     Ti624    10.005   .     S
He145     H322    10.003   .     S
He145     H323    10.003   .     S
He145     He203    10.019   .     S
He145     He200    10.019   .     S
He146     H232    10.003   .     S
He146     H233    10.003   .     S
He146     He201    10.019   .     S
He146     He215    10.019   .     S
He147     H328    10.003   .     S
He147     H329    10.003   .     S
He147     He192    10.019   .     S
He147     He212    10.019   .     S
He148     H332    10.003   .     S
He148     H333    10.003   .     S
He148     He217    10.019   .     S
He148     He190    10.019   .     S
He149     H326    10.003   .     S
He149     H327    10.003   .     S
He149     He204    10.019   .     S
He149     He219    10.019   .     S
He150     H309    10.003   .     S
He150     H308    10.003   .     S
He150     He194    10.019   .     S
He150     He208    10.019   .     S
He151     H320    10.003   .     S
He151     H321    10.003   .     S
He151     He180    10.019   1_556     S
He151     He152    10.019   .     S
He152     H312    10.003   .     S
He152     H313    10.003   .     S
He152     He189    10.019   1_556     S
He153     H267    10.003   1_455     S
He153     H266    10.003   .     S
He153     He185    10.019   .     S
He153     He159    10.019   1_455     S
He154     H265    10.003   1_545     S
He154     H264    10.003   .     S
He154     He191    10.019   .     S
He154     He156    10.019   1_545     S
He155     H318    10.003   .     S
He155     H319    10.003   .     S
He155     He158    10.019   .     S
He155     He209    10.019   1_655     S
He156     H249    10.003   .     S
He156     H248    10.003   .     S
He156     He154    10.019   1_565     S
He156     He164    10.019   .     S
He157     H310    10.003   .     S
He157     H311    10.003   .     S
He157     He186    10.019   1_565     S
He157     He160    10.019   .     S
He158     H324    10.003   .     S
He158     H325    10.003   .     S
He158     He202    10.019   1_655     S
He159     H251    10.003   .     S
He159     H250    10.003   .     S
He159     He153    10.019   1_655     S
He159     He162    10.019   .     S
He160     H330    10.003   .     S
He160     H331    10.003   .     S
He160     He174    10.019   1_565     S
He161     H406    10.003   1_545     S
He161     H407    10.003   .     S
He161     He206    10.019   .     S
He161     He207    10.019   1_645     S
He162     H247    10.003   .     S
He162     H246    10.003   .     S
He162     He168    10.019   1_655     S
He163     H259    10.003   1_554     S
He163     H258    10.003   .     S
He163     He199    10.019   .     S
He163     He166    10.019   1_554     S
He164     H254    10.003   .     S
He164     H255    10.003   .     S
He164     He167    10.019   1_565     S
He165     H261    10.003   1_554     S
He165     H260    10.003   .     S
He165     He181    10.019   .     S
He165     He169    10.019   1_554     S
He166     H253    10.003   .     S
He166     H252    10.003   .     S
He166     He163    10.019   1_556     S
He166     He169    10.019   .     S
He167     H263    10.003   1_545     S
He167     H262    10.003   .     S
He167     He188    10.019   .     S
He167     He164    10.019   1_545     S
He168     H269    10.003   1_455     S
He168     H268    10.003   .     S
He168     He198    10.019   .     S
He168     He162    10.019   1_455     S
He169     H257    10.003   .     S
He169     H256    10.003   .     S
He169     He165    10.019   1_556     S
He170     H560    10.003   .     S
He170     H561    10.003   .     S
He170     He227    10.019   .     S
He170     He211    10.019   .     S
He171     H457    10.003   .     S
He171     H456    10.003   .     S
He171     He808    10.019   .     S
He171     He218    10.019   .     S
He172     H516    10.003   .     S
He172     H517    10.003   .     S
He172     He231    10.019   .     S
He172     He220    10.019   .     S
He173     H612    10.003   .     S
He173     H613    10.003   .     S
He173     He224    10.019   .     S
He173     He812    10.019   .     S
He174     H591    10.003   1_545     S
He174     H590    10.003   .     S
He174     He160    10.019   1_545     S
He174     He814    10.019   .     S
He175     H609    10.003   .     S
He175     H608    10.003   1_554     S
He175     He196    10.019   1_564     S
He175     He207    10.019   .     S
He176     H611    10.003   .     S
He176     H610    10.003   1_455     S
He176     He196    10.019   .     S
He176     He206    10.019   1_456     S
He177     H580    10.003   .     S
He177     H581    10.003   .     S
He177     He187    10.019   .     S
He177     He815    10.019   1_655     S
He178     H316    10.003   .     S
He178     H317    10.003   .     S
He178     He228    10.019   .     S
He178     He816    10.019   .     S
He179     H587    10.003   .     S
He179     H586    10.003   .     S
He179     He810    10.019   1_556     S
He179     He182    10.019   .     S
He180     H589    10.003   1_554     S
He180     H588    10.003   .     S
He180     He151    10.019   1_554     S
He180     He222    10.019   .     S
He181     H356    10.003   .     S
He181     H357    10.003   .     S
He181     He199    10.019   .     S
He182     H315    10.003   .     S
He182     H314    10.003   .     S
He182     He813    10.019   1_556     S
He183     H644    10.003   .     S
He183     H645    10.003   .     S
He183     He184    10.019   .     S
He183     He809    10.019   1_565     S
He184     H334    10.003   .     S
He184     H335    10.003   .     S
He184     He816    10.019   1_565     S
He185     H371    10.003   .     S
He185     H370    10.003   .     S
He185     He198    10.019   .     S
He186     H582    10.003   .     S
He186     H583    10.003   1_545     S
He186     He157    10.019   1_545     S
He186     He223    10.019   .     S
He187     H452    10.003   .     S
He187     H453    10.003   .     S
He187     He812    10.019   1_655     S
He188     H343    10.003   .     S
He188     H342    10.003   .     S
He188     He191    10.019   .     S
He189     H578    10.003   .     S
He189     H579    10.003   1_554     S
He189     He226    10.019   .     S
He189     He152    10.019   1_554     S
He190     H454    10.003   .     S
He190     H455    10.003   .     S
He190     He808    10.019   .     S
He191     H341    10.003   .     S
He191     H340    10.003   .     S
He192     H532    10.003   .     S
He192     H533    10.003   .     S
He192     He227    10.019   .     S
He193     H660    10.003   .     S
He193     H661    10.003   .     S
He193     He230    10.019   .     S
He193     He209    10.019   .     S
He194     H484    10.003   .     S
He194     H485    10.003   .     S
He194     He197    10.019   .     S
He195     H337    10.003   .     S
He195     H336    10.003   .     S
He195     He221    10.019   .     S
He195     He811    10.019   .     S
He196     H449    10.003   .     S
He196     H448    10.003   1_545     S
He196     He175    10.019   1_546     S
He197     H486    10.003   .     S
He197     H487    10.003   .     S
He197     He213    10.019   .     S
He198     H339    10.003   .     S
He198     H338    10.003   .     S
He199     H306    10.003   .     S
He199     H307    10.003   .     S
He200     H793    10.003   .     S
He200     H792    10.003   .     S
He200     He205    10.019   .     S
He201     H501    10.003   .     S
He201     H500    10.003   .     S
He201     He231    10.019   .     S
He202     H584    10.003   .     S
He202     H585    10.003   1_455     S
He202     He230    10.019   .     S
He202     He158    10.019   1_455     S
He203     H409    10.003   .     S
He203     H408    10.003   .     S
He203     He216    10.019   .     S
He204     H535    10.003   .     S
He204     H534    10.003   .     S
He204     He811    10.019   .     S
He205     H794    10.003   .     S
He205     H795    10.003   .     S
He205     He214    10.019   .     S
He206     H384    10.003   1_554     S
He206     H385    10.003   .     S
He206     He176    10.019   1_654     S
He207     H606    10.003   1_455     S
He207     H607    10.003   .     S
He207     He161    10.019   1_465     S
He208     H389    10.003   .     S
He208     H388    10.003   .     S
He208     He210    10.019   .     S
He209     H593    10.003   1_455     S
He209     H592    10.003   .     S
He209     He155    10.019   1_455     S
He210     H391    10.003   .     S
He210     H390    10.003   .     S
He210     He213    10.019   .     S
He211     H433    10.003   .     S
He211     H432    10.003   .     S
He211     He212    10.019   .     S
He212     H431    10.003   .     S
He212     H430    10.003   .     S
He213     H450    10.003   .     S
He213     H451    10.003   .     S
He214     H514    10.003   .     S
He214     H515    10.003   .     S
He214     He216    10.019   .     S
He215     H411    10.003   .     S
He215     H410    10.003   .     S
He215     He220    10.019   .     S
He216     H412    10.003   .     S
He216     H413    10.003   .     S
He217     H386    10.003   .     S
He217     H387    10.003   .     S
He217     He218    10.019   .     S
He218     H393    10.003   .     S
He218     H392    10.003   .     S
He219     H428    10.003   .     S
He219     H429    10.003   .     S
He219     He221    10.019   .     S
He220     H414    10.003   .     S
He220     H415    10.003   .     S
He221     H434    10.003   .     S
He221     H435    10.003   .     S
He222     H646    10.003   .     S
He222     H647    10.003   .     S
He222     He226    10.019   .     S
He223     H748    10.003   .     S
He223     H749    10.003   .     S
He223     He814    10.019   .     S
He224     H778    10.003   .     S
He224     H779    10.003   .     S
He224     He815    10.019   .     S
He225     H706    10.003   .     S
He225     H707    10.003   .     S
He225     He229    10.019   .     S
He225     He810    10.019   .     S
He226     H643    10.003   .     S
He226     H642    10.003   .     S
He227     H562    10.003   .     S
He227     H563    10.003   .     S
He228     H735    10.003   .     S
He228     H734    10.003   .     S
He228     He809    10.019   .     S
He229     H721    10.003   .     S
He229     H720    10.003   .     S
He229     He813    10.019   .     S
He230     H615    10.003   .     S
He230     H614    10.003   .     S
He231     H519    10.003   .     S
He231     H518    10.003   .     S
H232     H233    9.992   .     S
H232     Er711    10.001   .     S
H233     Er378    10.001   .     S
V234     V236    9.996   .     S
V234     V235    9.996   .     S
V234     Ti245    9.999   .     S
V234     V417    10.006   .     S
V235     V236    9.996   .     S
V235     Ti239    9.999   .     S
V235     V438    10.006   .     S
V236     Ti242    9.999   .     S
V236     V396    10.006   .     S
Er237     Ti239    9.993   .     S
Er237     Er238    9.99   .     S
Er237     Er241    9.999   .     S
Er237     H249    10.001   .     S
Er238     Ti239    9.993   .     S
Er238     Er244    9.999   .     S
Er238     H255    10.001   .     S
Er240     Ti242    9.993   .     S
Er240     Er241    9.99   .     S
Er240     Er243    9.999   .     S
Er240     H247    10.001   .     S
Er241     Ti242    9.993   .     S
Er241     H251    10.001   .     S
Er243     Ti245    9.993   .     S
Er243     Er244    9.99   .     S
Er243     H257    10.001   .     S
Er244     Ti245    9.993   .     S
Er244     H253    10.001   .     S
H246     H247    9.992   .     S
H246     Er511    10.001   .     S
H248     H249    9.992   .     S
H248     Er482    10.001   .     S
H250     H251    9.992   .     S
H250     Er539    10.001   .     S
H252     H253    9.992   .     S
H252     Er557    10.001   .     S
H254     H255    9.992   .     S
H254     Er800    10.001   .     S
H256     H257    9.992   .     S
H256     Er491    10.001   .     S
H258     H259    9.992   1_554     S
H258     Er558    10.001   1_554     S
H259     He163    10.003   1_556     S
H259     H258    9.992   1_556     S
H259     Er285    10.001   1_556     S
H260     H261    9.992   1_554     S
H260     Er492    10.001   1_554     S
H261     He165    10.003   1_556     S
H261     H260    9.992   1_556     S
H261     Er301    10.001   1_556     S
H262     H263    9.992   1_545     S
H262     Er799    10.001   1_545     S
H263     He167    10.003   1_565     S
H263     H262    9.992   1_565     S
H263     Er289    10.001   1_565     S
H264     H265    9.992   1_545     S
H264     Er481    10.001   1_545     S
H265     He154    10.003   1_565     S
H265     H264    9.992   1_565     S
H265     Er273    10.001   1_565     S
H266     H267    9.992   1_455     S
H266     Er540    10.001   1_455     S
H267     He153    10.003   1_655     S
H267     H266    9.992   1_655     S
H267     Er277    10.001   1_655     S
H268     H269    9.992   1_455     S
H268     Er512    10.001   1_455     S
H269     He168    10.003   1_655     S
H269     H268    9.992   1_655     S
H269     Er297    10.001   1_655     S
V270     V272    9.996   .     S
V270     V271    9.996   .     S
V270     Ti281    9.999   .     S
V270     V520    10.006   .     S
V271     V272    9.996   .     S
V271     Ti275    9.999   1_455     S
V271     V780    10.006   .     S
V272     Ti278    9.999   1_545     S
V272     V751    10.006   .     S
Er273     Ti275    9.993   .     S
Er273     Er274    9.99   .     S
Er273     Er277    9.999   1_645     S
Er273     H265    10.001   1_545     S
Er274     Ti275    9.993   .     S
Er274     Er279    9.999   1_655     S
Er274     H340    10.001   .     S
Ti275     V271    9.999   1_655     S
Er276     Er277    9.99   .     S
Er276     Ti278    9.993   .     S
Er276     Er280    9.999   1_565     S
Er276     H370    10.001   .     S
Er277     Ti278    9.993   .     S
Er277     Er273    9.999   1_465     S
Er277     H267    10.001   1_455     S
Ti278     V272    9.999   1_565     S
Er279     Ti281    9.993   .     S
Er279     Er280    9.99   .     S
Er279     Er274    9.999   1_455     S
Er279     H610    10.001   1_455     S
Er280     Ti281    9.993   .     S
Er280     Er276    9.999   1_545     S
Er280     H448    10.001   1_545     S
V282     V283    9.996   .     S
V282     V284    9.996   .     S
V282     Ti290    9.999   1_554     S
V282     V649    10.006   .     S
V283     V284    9.996   .     S
V283     Ti287    9.999   1_545     S
V283     V722    10.006   .     S
V284     Ti293    9.999   .     S
V284     V460    10.006   .     S
Er285     Ti287    9.993   .     S
Er285     Er286    9.99   .     S
Er285     Er289    9.999   1_564     S
Er285     H259    10.001   1_554     S
Er286     Ti287    9.993   .     S
Er286     Er291    9.999   1_565     S
Er286     H306    10.001   .     S
Ti287     V283    9.999   1_565     S
Er288     Er289    9.99   .     S
Er288     Ti290    9.993   .     S
Er288     Er292    9.999   1_556     S
Er288     H342    10.001   .     S
Er289     Ti290    9.993   .     S
Er289     Er285    9.999   1_546     S
Er289     H263    10.001   1_545     S
Ti290     V282    9.999   1_556     S
Er291     Er292    9.99   .     S
Er291     Ti293    9.993   .     S
Er291     Er286    9.999   1_545     S
Er291     H406    10.001   1_545     S
Er292     Ti293    9.993   .     S
Er292     Er288    9.999   1_554     S
Er292     H384    10.001   1_554     S
V294     V296    9.996   .     S
V294     V295    9.996   .     S
V294     Ti302    9.999   1_455     S
V294     V664    10.006   .     S
V295     V296    9.996   .     S
V295     Ti299    9.999   1_554     S
V295     V709    10.006   .     S
V296     Ti305    9.999   .     S
V296     V568    10.006   .     S
Er297     Ti299    9.993   .     S
Er297     Er298    9.99   .     S
Er297     Er301    9.999   1_456     S
Er297     H269    10.001   1_455     S
Er298     Ti299    9.993   .     S
Er298     Er303    9.999   1_556     S
Er298     H338    10.001   .     S
Ti299     V295    9.999   1_556     S
Er300     Er301    9.99   .     S
Er300     Ti302    9.993   .     S
Er300     Er304    9.999   1_655     S
Er300     H356    10.001   .     S
Er301     Ti302    9.993   .     S
Er301     Er297    9.999   1_654     S
Er301     H261    10.001   1_554     S
Ti302     V294    9.999   1_655     S
Er303     Ti305    9.993   .     S
Er303     Er304    9.99   .     S
Er303     Er298    9.999   1_554     S
Er303     H608    10.001   1_554     S
Er304     Ti305    9.993   .     S
Er304     Er300    9.999   1_455     S
Er304     H606    10.001   1_455     S
H306     H307    9.992   .     S
H307     Er362    10.001   .     S
H308     H309    9.992   .     S
H308     Er665    10.001   .     S
H309     Er364    10.001   .     S
H310     H311    9.992   .     S
H310     Er446    10.001   .     S
H311     Er805    10.001   .     S
H312     H313    9.992   .     S
H312     Er419    10.001   .     S
H313     Er554    10.001   .     S
H314     H315    9.992   .     S
H314     Er523    10.001   .     S
H315     Er697    10.001   .     S
H316     H317    9.992   .     S
H316     Er743    10.001   .     S
H317     Er753    10.001   .     S
H318     H319    9.992   .     S
H318     Er404    10.001   .     S
H319     Er545    10.001   .     S
H320     H321    9.992   .     S
H320     Er420    10.001   .     S
H321     Er495    10.001   .     S
H322     H323    9.992   .     S
H322     Er651    10.001   .     S
H323     Er347    10.001   .     S
H324     H325    9.992   .     S
H324     Er403    10.001   .     S
H325     Er505    10.001   .     S
H326     H327    9.992   .     S
H326     Er756    10.001   .     S
H327     Er381    10.001   .     S
H328     H329    9.992   .     S
H328     Er728    10.001   .     S
H329     Er367    10.001   .     S
H330     H331    9.992   .     S
H330     Er445    10.001   .     S
H331     Er475    10.001   .     S
H332     H333    9.992   .     S
H332     Er783    10.001   .     S
H333     Er353    10.001   .     S
H334     H335    9.992   .     S
H334     Er570    10.001   .     S
H335     Er772    10.001   .     S
H336     H337    9.992   .     S
H336     Er625    10.001   .     S
H337     Er575    10.001   .     S
H338     H339    9.992   .     S
H339     Er375    10.001   .     S
H340     H341    9.992   .     S
H341     Er350    10.001   .     S
H342     H343    9.992   .     S
H343     Er351    10.001   .     S
V344     V346    9.996   .     S
V344     V345    9.996   .     S
V344     Ti349    9.999   .     S
V344     V489    10.006   .     S
V345     V346    9.996   .     S
V345     Ti355    9.999   .     S
V345     V502    10.006   .     S
V346     Ti352    9.999   .     S
V346     V678    10.006   .     S
Er347     Ti349    9.993   .     S
Er347     Er348    9.99   .     S
Er347     Er351    9.999   .     S
Er348     Ti349    9.993   .     S
Er348     Er354    9.999   .     S
Er348     H408    10.001   .     S
Er350     Er351    9.99   .     S
Er350     Ti352    9.993   .     S
Er350     Er353    9.999   .     S
Er351     Ti352    9.993   .     S
Er353     Ti355    9.993   .     S
Er353     Er354    9.99   .     S
Er354     Ti355    9.993   .     S
Er354     H386    10.001   .     S
H356     H357    9.992   .     S
H357     Er361    10.001   .     S
V358     V360    9.996   .     S
V358     V359    9.996   .     S
V358     Ti369    9.999   .     S
V358     V472    10.006   .     S
V359     V360    9.996   .     S
V359     Ti366    9.999   .     S
V359     V536    10.006   .     S
V360     Ti363    9.999   .     S
V360     V768    10.006   .     S
Er361     Er362    9.99   .     S
Er361     Ti363    9.993   .     S
Er361     Er364    9.999   .     S
Er362     Ti363    9.993   .     S
Er362     Er367    9.999   .     S
Er364     Ti366    9.993   .     S
Er364     Er365    9.99   .     S
Er365     Ti366    9.993   .     S
Er365     Er368    9.999   .     S
Er365     H388    10.001   .     S
Er367     Ti369    9.993   .     S
Er367     Er368    9.99   .     S
Er368     Ti369    9.993   .     S
Er368     H430    10.001   .     S
H370     H371    9.992   .     S
H371     Er376    10.001   .     S
V372     V374    9.996   .     S
V372     V373    9.996   .     S
V372     Ti383    9.999   .     S
V372     V796    10.006   .     S
V373     V374    9.996   .     S
V373     Ti380    9.999   .     S
V373     V549    10.006   .     S
V374     Ti377    9.999   .     S
V374     V696    10.006   .     S
Er375     Er376    9.99   .     S
Er375     Ti377    9.993   .     S
Er375     Er378    9.999   .     S
Er376     Ti377    9.993   .     S
Er376     Er381    9.999   .     S
Er378     Er379    9.99   .     S
Er378     Ti380    9.993   .     S
Er379     Ti380    9.993   .     S
Er379     Er382    9.999   .     S
Er379     H410    10.001   .     S
Er381     Er382    9.99   .     S
Er381     Ti383    9.993   .     S
Er382     Ti383    9.993   .     S
Er382     H428    10.001   .     S
H384     He206    10.003   1_556     S
H384     Er292    10.001   1_556     S
H384     H385    9.992   1_556     S
H385     H384    9.992   1_554     S
H385     Er687    10.001   1_554     S
H386     H387    9.992   .     S
H387     Er401    10.001   .     S
H388     H389    9.992   .     S
H389     Er397    10.001   .     S
H390     H391    9.992   .     S
H390     Er604    10.001   .     S
H391     Er398    10.001   .     S
H392     H393    9.992   .     S
H392     Er637    10.001   .     S
H393     Er400    10.001   .     S
V394     V396    9.996   .     S
V394     V395    9.996   .     S
V394     Ti402    9.999   .     S
V394     V416    10.006   .     S
V395     V396    9.996   .     S
V395     Ti399    9.999   .     S
V395     V436    10.006   .     S
V396     Ti405    9.999   .     S
Er397     Er398    9.99   .     S
Er397     Ti399    9.993   .     S
Er397     Er404    9.999   .     S
Er398     Ti399    9.993   .     S
Er398     Er400    9.999   .     S
Er400     Ti402    9.993   .     S
Er400     Er401    9.99   .     S
Er401     Ti402    9.993   .     S
Er401     Er403    9.999   .     S
Er403     Ti405    9.993   .     S
Er403     Er404    9.99   .     S
Er404     Ti405    9.993   .     S
H406     He161    10.003   1_565     S
H406     Er291    10.001   1_565     S
H406     H407    9.992   1_565     S
H407     H406    9.992   1_545     S
H407     Er770    10.001   1_545     S
H408     H409    9.992   .     S
H409     Er425    10.001   .     S
H410     H411    9.992   .     S
H411     Er423    10.001   .     S
H412     H413    9.992   .     S
H412     Er634    10.001   .     S
H413     Er426    10.001   .     S
H414     H415    9.992   .     S
H414     Er619    10.001   .     S
H415     Er422    10.001   .     S
V416     V418    9.996   .     S
V416     V417    9.996   .     S
V416     Ti427    9.999   .     S
V417     V418    9.996   .     S
V417     Ti421    9.999   .     S
V418     Ti424    9.999   .     S
V418     V437    10.006   .     S
Er419     Er420    9.99   .     S
Er419     Ti421    9.993   .     S
Er419     Er423    9.999   .     S
Er420     Ti421    9.993   .     S
Er420     Er425    9.999   .     S
Er422     Ti424    9.993   .     S
Er422     Er423    9.99   .     S
Er422     Er426    9.999   .     S
Er423     Ti424    9.993   .     S
Er425     Er426    9.99   .     S
Er425     Ti427    9.993   .     S
Er426     Ti427    9.993   .     S
H428     H429    9.992   .     S
H429     Er439    10.001   .     S
H430     H431    9.992   .     S
H431     Er443    10.001   .     S
H432     H433    9.992   .     S
H432     Er597    10.001   .     S
H433     Er442    10.001   .     S
H434     H435    9.992   .     S
H434     Er626    10.001   .     S
H435     Er440    10.001   .     S
V436     V437    9.996   .     S
V436     V438    9.996   .     S
V436     Ti444    9.999   .     S
V437     V438    9.996   .     S
V437     Ti441    9.999   .     S
V438     Ti447    9.999   .     S
Er439     Ti441    9.993   .     S
Er439     Er440    9.99   .     S
Er439     Er446    9.999   .     S
Er440     Ti441    9.993   .     S
Er440     Er442    9.999   .     S
Er442     Ti444    9.993   .     S
Er442     Er443    9.99   .     S
Er443     Ti444    9.993   .     S
Er443     Er445    9.999   .     S
Er445     Ti447    9.993   .     S
Er445     Er446    9.99   .     S
Er446     Ti447    9.993   .     S
H448     He196    10.003   1_565     S
H448     Er280    10.001   1_565     S
H448     H449    9.992   1_565     S
H449     H448    9.992   1_545     S
H449     Er701    10.001   1_545     S
H450     H451    9.992   .     S
H450     Er603    10.001   .     S
H451     Er467    10.001   .     S
H452     H453    9.992   .     S
H452     Er461    10.001   .     S
H453     Er681    10.001   .     S
H454     H455    9.992   .     S
H454     Er784    10.001   .     S
H455     Er478    10.001   .     S
H456     H457    9.992   .     S
H456     Er636    10.001   .     S
H457     Er464    10.001   .     S
V458     V459    9.996   .     S
V458     V460    9.996   .     S
V458     Ti466    9.999   .     S
V458     V723    10.006   .     S
V459     V460    9.996   .     S
V459     Ti469    9.999   .     S
V459     V648    10.006   .     S
V460     Ti463    9.999   .     S
Er461     Er462    9.99   .     S
Er461     Ti463    9.993   .     S
Er461     Er468    9.999   .     S
Er462     Ti463    9.993   .     S
Er462     Er465    9.999   .     S
Er462     H580    10.001   .     S
Er464     Ti466    9.993   .     S
Er464     Er465    9.99   .     S
Er464     Er467    9.999   .     S
Er465     Ti466    9.993   .     S
Er465     H471    10.001   .     S
Er467     Ti469    9.993   .     S
Er467     Er468    9.99   .     S
Er468     Ti469    9.993   .     S
Er468     H487    10.001   .     S
H470     H471    9.992   .     S
H470     Er479    10.001   .     S
H470     He808    10.003   .     S
H471     He808    10.003   .     S
V472     V473    9.996   .     S
V472     V474    9.996   .     S
V472     Ti477    9.999   .     S
V473     V474    9.996   .     S
V473     Ti483    9.999   .     S
V473     V538    10.006   .     S
V474     Ti480    9.999   1_565     S
V474     V766    10.006   .     S
Er475     Ti477    9.993   .     S
Er475     Er476    9.99   .     S
Er475     Er482    9.999   .     S
Er476     Ti477    9.993   .     S
Er476     Er479    9.999   1_565     S
Er476     H590    10.001   1_565     S
Er478     Er479    9.99   .     S
Er478     Ti480    9.993   .     S
Er478     Er481    9.999   1_545     S
Er479     Ti480    9.993   .     S
Er479     Er476    9.999   1_545     S
Ti480     V474    9.999   1_545     S
Er481     Ti483    9.993   .     S
Er481     Er482    9.99   .     S
Er481     Er478    9.999   1_565     S
Er481     H264    10.001   1_565     S
Er482     Ti483    9.993   .     S
H484     H485    9.992   .     S
H484     Er666    10.001   .     S
H485     Er497    10.001   .     S
H486     H487    9.992   .     S
H486     Er498    10.001   .     S
V488     V490    9.996   .     S
V488     V489    9.996   .     S
V488     Ti493    9.999   .     S
V488     V503    10.006   .     S
V489     V490    9.996   .     S
V489     Ti496    9.999   .     S
V490     Ti499    9.999   1_556     S
V490     V680    10.006   .     S
Er491     Ti493    9.993   .     S
Er491     Er492    9.99   .     S
Er491     Er495    9.999   .     S
Er492     Ti493    9.993   .     S
Er492     Er497    9.999   1_556     S
Er492     H260    10.001   1_556     S
Er494     Er495    9.99   .     S
Er494     Ti496    9.993   .     S
Er494     Er498    9.999   1_556     S
Er494     H588    10.001   1_556     S
Er495     Ti496    9.993   .     S
Er497     Ti499    9.993   .     S
Er497     Er498    9.99   .     S
Er497     Er492    9.999   1_554     S
Er498     Ti499    9.993   .     S
Er498     Er494    9.999   1_554     S
Ti499     V490    9.999   1_554     S
H500     H501    9.992   .     S
H500     Er712    10.001   .     S
H501     Er509    10.001   .     S
V502     V504    9.996   .     S
V502     V503    9.996   .     S
V502     Ti507    9.999   .     S
V503     V504    9.996   .     S
V503     Ti513    9.999   .     S
V504     Ti510    9.999   1_655     S
V504     V679    10.006   .     S
Er505     Ti507    9.993   .     S
Er505     Er506    9.99   .     S
Er505     Er511    9.999   .     S
Er506     Ti507    9.993   .     S
Er506     Er508    9.999   1_655     S
Er506     H584    10.001   1_655     S
Er508     Ti510    9.993   .     S
Er508     Er509    9.99   .     S
Er508     Er506    9.999   1_455     S
Er508     H518    10.001   .     S
Er509     Ti510    9.993   .     S
Er509     Er512    9.999   1_455     S
Ti510     V504    9.999   1_455     S
Er511     Er512    9.99   .     S
Er511     Ti513    9.993   .     S
Er512     Ti513    9.993   .     S
Er512     Er509    9.999   1_655     S
Er512     H268    10.001   1_655     S
H514     H515    9.992   .     S
H514     Er633    10.001   .     S
H515     Er529    10.001   .     S
H516     H517    9.992   .     S
H516     Er620    10.001   .     S
H517     Er526    10.001   .     S
H518     H519    9.992   .     S
H519     Er527    10.001   .     S
V520     V521    9.996   .     S
V520     V522    9.996   .     S
V520     Ti525    9.999   .     S
V521     V522    9.996   .     S
V521     Ti531    9.999   .     S
V521     V752    10.006   .     S
V522     Ti528    9.999   .     S
V522     V781    10.006   .     S
Er523     Ti525    9.993   .     S
Er523     Er524    9.99   .     S
Er523     Er530    9.999   .     S
Er524     Ti525    9.993   .     S
Er524     Er527    9.999   .     S
Er524     H586    10.001   .     S
Er526     Er527    9.99   .     S
Er526     Ti528    9.993   .     S
Er526     Er529    9.999   .     S
Er527     Ti528    9.993   .     S
Er529     Ti531    9.993   .     S
Er529     Er530    9.99   .     S
Er530     Ti531    9.993   .     S
Er530     H795    10.001   .     S
H532     H533    9.992   .     S
H532     Er729    10.001   .     S
H533     Er552    10.001   .     S
H534     H535    9.992   .     S
H534     Er757    10.001   .     S
H535     Er543    10.001   .     S
V536     V537    9.996   .     S
V536     V538    9.996   .     S
V536     Ti547    9.999   .     S
V537     V538    9.996   .     S
V537     Ti544    9.999   1_655     S
V537     V767    10.006   .     S
V538     Ti541    9.999   .     S
Er539     Ti541    9.993   .     S
Er539     Er540    9.99   .     S
Er539     Er545    9.999   .     S
Er540     Ti541    9.993   .     S
Er540     Er543    9.999   1_655     S
Er540     H266    10.001   1_655     S
Er542     Ti544    9.993   .     S
Er542     Er543    9.99   .     S
Er542     Er546    9.999   1_455     S
Er542     H564    10.001   .     S
Er543     Ti544    9.993   .     S
Er543     Er540    9.999   1_455     S
Ti544     V537    9.999   1_455     S
Er545     Er546    9.99   .     S
Er545     Ti547    9.993   .     S
Er546     Ti547    9.993   .     S
Er546     Er542    9.999   1_655     S
Er546     H592    10.001   1_655     S
V548     V550    9.996   .     S
V548     V549    9.996   .     S
V548     Ti553    9.999   1_556     S
V548     V694    10.006   .     S
V549     V550    9.996   .     S
V549     Ti556    9.999   .     S
V550     Ti559    9.999   .     S
V550     V798    10.006   .     S
Er551     Ti553    9.993   .     S
Er551     Er552    9.99   .     S
Er551     Er555    9.999   1_554     S
Er551     H562    10.001   .     S
Er552     Ti553    9.993   .     S
Er552     Er558    9.999   1_554     S
Ti553     V548    9.999   1_554     S
Er554     Ti556    9.993   .     S
Er554     Er555    9.99   .     S
Er554     Er557    9.999   .     S
Er555     Ti556    9.993   .     S
Er555     Er551    9.999   1_556     S
Er555     H578    10.001   1_556     S
Er557     Er558    9.99   .     S
Er557     Ti559    9.993   .     S
Er558     Ti559    9.993   .     S
Er558     Er552    9.999   1_556     S
Er558     H258    10.001   1_556     S
H560     H561    9.992   .     S
H560     Er598    10.001   .     S
H561     Er572    10.001   .     S
H562     H563    9.992   .     S
H563     Er573    10.001   .     S
H564     He811    10.003   .     S
H564     H565    9.992   .     S
H565     He811    10.003   .     S
H565     Er576    10.001   .     S
V566     V568    9.996   .     S
V566     V567    9.996   .     S
V566     Ti574    9.999   .     S
V566     V710    10.006   .     S
V567     V568    9.996   .     S
V567     Ti577    9.999   .     S
V567     V662    10.006   .     S
V568     Ti571    9.999   .     S
Er569     Er570    9.99   .     S
Er569     Ti571    9.993   .     S
Er569     Er573    9.999   .     S
Er569     H644    10.001   .     S
Er570     Ti571    9.993   .     S
Er570     Er576    9.999   .     S
Er572     Er573    9.99   .     S
Er572     Ti574    9.993   .     S
Er572     Er575    9.999   .     S
Er573     Ti574    9.993   .     S
Er575     Ti577    9.993   .     S
Er575     Er576    9.99   .     S
Er576     Ti577    9.993   .     S
H578     Er555    10.001   1_554     S
H578     H579    9.992   1_554     S
H579     He189    10.003   1_556     S
H579     H578    9.992   1_556     S
H579     Er715    10.001   1_556     S
H580     H581    9.992   .     S
H581     Er775    10.001   .     S
H582     H583    9.992   1_545     S
H582     Er806    10.001   1_545     S
H583     He186    10.003   1_565     S
H583     H582    9.992   1_565     S
H583     Er759    10.001   1_565     S
H584     Er506    10.001   1_455     S
H584     H585    9.992   1_455     S
H585     He202    10.003   1_655     S
H585     H584    9.992   1_655     S
H585     Er787    10.001   1_655     S
H586     H587    9.992   .     S
H587     Er684    10.001   .     S
H588     Er494    10.001   1_554     S
H588     H589    9.992   1_554     S
H589     He180    10.003   1_556     S
H589     H588    9.992   1_556     S
H589     Er657    10.001   1_556     S
H590     Er476    10.001   1_545     S
H590     H591    9.992   1_545     S
H591     He174    10.003   1_565     S
H591     H590    9.992   1_565     S
H591     Er726    10.001   1_565     S
H592     Er546    10.001   1_455     S
H592     H593    9.992   1_455     S
H593     He209    10.003   1_655     S
H593     H592    9.992   1_655     S
H593     Er671    10.001   1_655     S
V594     V595    9.996   .     S
V594     V596    9.996   .     S
V594     Ti605    9.999   .     S
V594     V631    10.006   .     S
V595     V596    9.996   .     S
V595     Ti599    9.999   .     S
V595     V616    10.006   .     S
V596     Ti602    9.999   .     S
V596     V738    10.006   .     S
Er597     Ti599    9.993   .     S
Er597     Er598    9.99   .     S
Er597     Er604    9.999   .     S
Er598     Ti599    9.993   .     S
Er598     Er600    9.999   .     S
Er600     Ti602    9.993   .     S
Er600     Er601    9.99   .     S
Er600     H643    10.001   .     S
Er601     Ti602    9.993   .     S
Er601     Er603    9.999   .     S
Er601     H646    10.001   .     S
Er603     Ti605    9.993   .     S
Er603     Er604    9.99   .     S
Er604     Ti605    9.993   .     S
H606     He207    10.003   1_655     S
H606     Er304    10.001   1_655     S
H606     H607    9.992   1_655     S
H607     H606    9.992   1_455     S
H607     Er769    10.001   1_455     S
H608     He175    10.003   1_556     S
H608     Er303    10.001   1_556     S
H608     H609    9.992   1_556     S
H609     H608    9.992   1_554     S
H609     Er700    10.001   1_554     S
H610     He176    10.003   1_655     S
H610     Er279    10.001   1_655     S
H610     H611    9.992   1_655     S
H611     H610    9.992   1_455     S
H611     Er688    10.001   1_455     S
H612     H613    9.992   .     S
H612     Er740    10.001   .     S
H613     Er668    10.001   .     S
H614     H615    9.992   .     S
H614     Er786    10.001   .     S
H615     Er622    10.001   .     S
V616     V618    9.996   .     S
V616     V617    9.996   .     S
V616     Ti627    9.999   .     S
V617     V618    9.996   .     S
V617     Ti621    9.999   .     S
V617     V632    10.006   .     S
V618     Ti624    9.999   .     S
V618     V736    10.006   .     S
Er619     Er620    9.99   .     S
Er619     Ti621    9.993   .     S
Er619     Er626    9.999   .     S
Er620     Ti621    9.993   .     S
Er620     Er622    9.999   .     S
Er622     Ti624    9.993   .     S
Er622     Er623    9.99   .     S
Er623     Ti624    9.993   .     S
Er623     Er625    9.999   .     S
Er623     H660    10.001   .     S
Er625     Er626    9.99   .     S
Er625     Ti627    9.993   .     S
Er626     Ti627    9.993   .     S
H628     He814    10.003   .     S
H628     H629    9.992   .     S
H628     Er725    10.001   .     S
H629     He814    10.003   .     S
H629     Er639    10.001   .     S
V630     V631    9.996   .     S
V630     V632    9.996   .     S
V630     Ti641    9.999   .     S
V630     V737    10.006   .     S
V631     V632    9.996   .     S
V631     Ti638    9.999   .     S
V632     Ti635    9.999   .     S
Er633     Ti635    9.993   .     S
Er633     Er634    9.99   .     S
Er633     Er640    9.999   .     S
Er634     Ti635    9.993   .     S
Er634     Er637    9.999   .     S
Er636     Ti638    9.993   .     S
Er636     Er637    9.99   .     S
Er636     Er639    9.999   .     S
Er637     Ti638    9.993   .     S
Er639     Ti641    9.993   .     S
Er639     Er640    9.99   .     S
Er640     Ti641    9.993   .     S
Er640     H748    10.001   .     S
H642     H643    9.992   .     S
H642     Er714    10.001   .     S
H644     H645    9.992   .     S
H645     Er704    10.001   .     S
H646     H647    9.992   .     S
H647     Er658    10.001   .     S
V648     V649    9.996   .     S
V648     V650    9.996   .     S
V648     Ti659    9.999   .     S
V649     V650    9.996   .     S
V649     Ti653    9.999   1_554     S
V650     Ti656    9.999   .     S
V650     V724    10.006   .     S
Er651     Er652    9.99   .     S
Er651     Ti653    9.993   .     S
Er651     Er657    9.999   1_556     S
Er652     Ti653    9.993   .     S
Er652     Er655    9.999   1_556     S
Er652     H792    10.001   .     S
Ti653     V649    9.999   1_556     S
Er654     Er655    9.99   .     S
Er654     Ti656    9.993   .     S
Er654     Er658    9.999   .     S
Er654     H720    10.001   .     S
Er655     Ti656    9.993   .     S
Er655     Er652    9.999   1_554     S
Er655     H691    10.001   1_554     S
Er657     Ti659    9.993   .     S
Er657     Er658    9.99   .     S
Er657     Er651    9.999   1_554     S
Er657     H589    10.001   1_554     S
Er658     Ti659    9.993   .     S
H660     H661    9.992   .     S
H661     Er672    10.001   .     S
V662     V664    9.996   .     S
V662     V663    9.996   .     S
V662     Ti673    9.999   .     S
V663     V664    9.996   .     S
V663     Ti670    9.999   .     S
V663     V708    10.006   .     S
V664     Ti667    9.999   1_455     S
Er665     Er666    9.99   .     S
Er665     Ti667    9.993   .     S
Er665     Er671    9.999   1_655     S
Er666     Ti667    9.993   .     S
Er666     Er669    9.999   1_655     S
Ti667     V664    9.999   1_655     S
Er668     Er669    9.99   .     S
Er668     Ti670    9.993   .     S
Er668     Er672    9.999   .     S
Er669     Ti670    9.993   .     S
Er669     Er666    9.999   1_455     S
Er669     H675    10.001   1_455     S
Er671     Ti673    9.993   .     S
Er671     Er672    9.99   .     S
Er671     Er665    9.999   1_455     S
Er671     H593    10.001   1_455     S
Er672     Ti673    9.993   .     S
H674     He812    10.003   .     S
H674     H675    9.992   1_455     S
H674     Er682    10.001   1_455     S
H675     He812    10.003   1_655     S
H675     Er669    10.001   1_655     S
H675     H674    9.992   1_655     S
H676     He810    10.003   .     S
H676     H677    9.992   1_554     S
H676     Er685    10.001   1_554     S
H677     He810    10.003   1_556     S
H677     H676    9.992   1_556     S
H677     Er718    10.001   1_556     S
V678     V679    9.996   .     S
V678     V680    9.996   .     S
V678     Ti689    9.999   .     S
V679     V680    9.996   .     S
V679     Ti686    9.999   1_655     S
V680     Ti683    9.999   1_556     S
Er681     Ti683    9.993   .     S
Er681     Er682    9.99   .     S
Er681     Er687    9.999   1_554     S
Er682     Ti683    9.993   .     S
Er682     Er685    9.999   1_654     S
Er682     H674    10.001   1_655     S
Ti683     V680    9.999   1_554     S
Er684     Er685    9.99   .     S
Er684     Ti686    9.993   .     S
Er684     Er688    9.999   1_455     S
Er685     Ti686    9.993   .     S
Er685     Er682    9.999   1_456     S
Er685     H676    10.001   1_556     S
Ti686     V679    9.999   1_455     S
Er687     Ti689    9.993   .     S
Er687     Er688    9.99   .     S
Er687     Er681    9.999   1_556     S
Er687     H385    10.001   1_556     S
Er688     Ti689    9.993   .     S
Er688     Er684    9.999   1_655     S
Er688     H611    10.001   1_655     S
H690     He813    10.003   .     S
H690     H691    9.992   1_554     S
H690     Er698    10.001   1_554     S
H691     He813    10.003   1_556     S
H691     Er655    10.001   1_556     S
H691     H690    9.992   1_556     S
H692     He809    10.003   .     S
H692     H693    9.992   1_545     S
H692     Er703    10.001   1_545     S
H693     He809    10.003   1_565     S
H693     H692    9.992   1_565     S
H693     Er731    10.001   1_565     S
V694     V696    9.996   .     S
V694     V695    9.996   .     S
V694     Ti705    9.999   1_556     S
V695     V696    9.996   .     S
V695     Ti699    9.999   1_565     S
V695     V797    10.006   .     S
V696     Ti702    9.999   .     S
Er697     Er698    9.99   .     S
Er697     Ti699    9.993   .     S
Er697     Er701    9.999   1_545     S
Er698     Ti699    9.993   .     S
Er698     Er703    9.999   1_546     S
Er698     H690    10.001   1_556     S
Ti699     V695    9.999   1_545     S
Er700     Er701    9.99   .     S
Er700     Ti702    9.993   .     S
Er700     Er704    9.999   1_556     S
Er700     H609    10.001   1_556     S
Er701     Er697    9.999   1_565     S
Er701     Ti702    9.993   .     S
Er701     H449    10.001   1_565     S
Er703     Er698    9.999   1_564     S
Er703     Er704    9.99   .     S
Er703     Ti705    9.993   .     S
Er703     H692    10.001   1_565     S
Er704     Ti705    9.993   .     S
Er704     Er700    9.999   1_554     S
Ti705     V694    9.999   1_554     S
H706     H707    9.992   .     S
H706     Er745    10.001   .     S
H707     Er717    10.001   .     S
V708     V709    9.996   .     S
V708     V710    9.996   .     S
V708     Ti719    9.999   .     S
V709     V710    9.996   .     S
V709     Ti713    9.999   1_554     S
V710     Ti716    9.999   .     S
Er711     Ti713    9.993   .     S
Er711     Er712    9.99   .     S
Er711     Er715    9.999   1_556     S
Er712     Ti713    9.993   .     S
Er712     Er718    9.999   1_556     S
Ti713     V709    9.999   1_556     S
Er714     Er715    9.99   .     S
Er714     Ti716    9.993   .     S
Er714     Er717    9.999   .     S
Er715     Ti716    9.993   .     S
Er715     Er711    9.999   1_554     S
Er715     H579    10.001   1_554     S
Er717     Ti719    9.993   .     S
Er717     Er718    9.99   .     S
Er718     Ti719    9.993   .     S
Er718     Er712    9.999   1_554     S
Er718     H677    10.001   1_554     S
H720     H721    9.992   .     S
H721     Er746    10.001   .     S
V722     V724    9.996   .     S
V722     V723    9.996   .     S
V722     Ti730    9.999   1_545     S
V723     V724    9.996   .     S
V723     Ti727    9.999   .     S
V724     Ti733    9.999   .     S
Er725     Er726    9.99   .     S
Er725     Ti727    9.993   .     S
Er725     Er732    9.999   .     S
Er726     Ti727    9.993   .     S
Er726     Er728    9.999   1_545     S
Er726     H591    10.001   1_545     S
Er728     Er726    9.999   1_565     S
Er728     Ti730    9.993   .     S
Er728     Er729    9.99   .     S
Er729     Ti730    9.993   .     S
Er729     Er731    9.999   1_565     S
Ti730     V722    9.999   1_565     S
Er731     Er729    9.999   1_545     S
Er731     Ti733    9.993   .     S
Er731     Er732    9.99   .     S
Er731     H693    10.001   1_545     S
Er732     Ti733    9.993   .     S
Er732     H735    10.001   .     S
H734     H735    9.992   .     S
H734     Er742    10.001   .     S
V736     V737    9.996   .     S
V736     V738    9.996   .     S
V736     Ti741    9.999   .     S
V737     V738    9.996   .     S
V737     Ti744    9.999   .     S
V738     Ti747    9.999   .     S
Er739     Er740    9.99   .     S
Er739     Ti741    9.993   .     S
Er739     Er743    9.999   .     S
Er739     H778    10.001   .     S
Er740     Ti741    9.993   .     S
Er740     Er745    9.999   .     S
Er742     Er743    9.99   .     S
Er742     Ti744    9.993   .     S
Er742     Er746    9.999   .     S
Er743     Ti744    9.993   .     S
Er745     Er746    9.99   .     S
Er745     Ti747    9.993   .     S
Er746     Ti747    9.993   .     S
H748     H749    9.992   .     S
H749     Er760    10.001   .     S
V750     V752    9.996   .     S
V750     V751    9.996   .     S
V750     Ti755    9.999   .     S
V750     V782    10.006   .     S
V751     V752    9.996   .     S
V751     Ti758    9.999   1_545     S
V752     Ti761    9.999   .     S
Er753     Er754    9.99   .     S
Er753     Ti755    9.993   .     S
Er753     Er760    9.999   .     S
Er754     Ti755    9.993   .     S
Er754     Er757    9.999   1_545     S
Er754     H763    10.001   1_545     S
Er756     Ti758    9.993   .     S
Er756     Er757    9.99   .     S
Er756     Er759    9.999   1_565     S
Er757     Ti758    9.993   .     S
Er757     Er754    9.999   1_565     S
Ti758     V751    9.999   1_565     S
Er759     Ti761    9.993   .     S
Er759     Er760    9.99   .     S
Er759     Er756    9.999   1_545     S
Er759     H583    10.001   1_545     S
Er760     Ti761    9.993   .     S
H762     He816    10.003   .     S
H762     H763    9.992   1_545     S
H762     Er773    10.001   1_545     S
H763     He816    10.003   1_565     S
H763     Er754    10.001   1_565     S
H763     H762    9.992   1_565     S
H764     He815    10.003   .     S
H764     H765    9.992   1_455     S
H764     Er776    10.001   1_455     S
H765     He815    10.003   1_655     S
H765     H764    9.992   1_655     S
H765     Er789    10.001   1_655     S
V766     V767    9.996   .     S
V766     V768    9.996   .     S
V766     Ti777    9.999   1_565     S
V767     V768    9.996   .     S
V767     Ti774    9.999   1_655     S
V768     Ti771    9.999   .     S
Er769     Er770    9.99   .     S
Er769     Ti771    9.993   .     S
Er769     Er772    9.999   1_655     S
Er769     H607    10.001   1_655     S
Er770     Ti771    9.993   .     S
Er770     Er775    9.999   1_565     S
Er770     H407    10.001   1_565     S
Er772     Ti774    9.993   .     S
Er772     Er773    9.99   .     S
Er772     Er769    9.999   1_455     S
Er773     Ti774    9.993   .     S
Er773     Er776    9.999   1_465     S
Er773     H762    10.001   1_565     S
Ti774     V767    9.999   1_455     S
Er775     Er776    9.99   .     S
Er775     Ti777    9.993   .     S
Er775     Er770    9.999   1_545     S
Er776     Ti777    9.993   .     S
Er776     Er773    9.999   1_645     S
Er776     H764    10.001   1_655     S
Ti777     V766    9.999   1_545     S
H778     H779    9.992   .     S
H779     Er790    10.001   .     S
V780     V782    9.996   .     S
V780     V781    9.996   .     S
V780     Ti785    9.999   1_455     S
V781     V782    9.996   .     S
V781     Ti788    9.999   .     S
V782     Ti791    9.999   .     S
Er783     Ti785    9.993   .     S
Er783     Er784    9.99   .     S
Er783     Er787    9.999   1_655     S
Er784     Ti785    9.993   .     S
Er784     Er789    9.999   1_655     S
Ti785     V780    9.999   1_655     S
Er786     Er787    9.99   .     S
Er786     Ti788    9.993   .     S
Er786     Er790    9.999   .     S
Er787     Ti788    9.993   .     S
Er787     Er783    9.999   1_455     S
Er787     H585    10.001   1_455     S
Er789     Er784    9.999   1_455     S
Er789     Ti791    9.993   .     S
Er789     Er790    9.99   .     S
Er789     H765    10.001   1_455     S
Er790     Ti791    9.993   .     S
H792     H793    9.992   .     S
H793     Er802    10.001   .     S
H794     H795    9.992   .     S
H794     Er803    10.001   .     S
V796     V798    9.996   .     S
V796     V797    9.996   .     S
V796     Ti807    9.999   .     S
V797     V798    9.996   .     S
V797     Ti804    9.999   1_565     S
V798     Ti801    9.999   .     S
Er799     Ti801    9.993   .     S
Er799     Er800    9.99   .     S
Er799     Er802    9.999   1_565     S
Er799     H262    10.001   1_565     S
Er800     Ti801    9.993   .     S
Er800     Er805    9.999   .     S
Er802     Ti804    9.993   .     S
Er802     Er803    9.99   .     S
Er802     Er799    9.999   1_545     S
Er803     Ti804    9.993   .     S
Er803     Er806    9.999   1_545     S
Ti804     V797    9.999   1_545     S
Er805     Er806    9.99   .     S
Er805     Ti807    9.993   .     S
Er806     Ti807    9.993   .     S
Er806     Er803    9.999   1_565     S
Er806     H582    10.001   1_565     S
He809     H693    10.003   1_545     S
He809     He183    10.019   1_545     S
He810     H677    10.003   1_554     S
He810     He179    10.019   1_554     S
He812     H675    10.003   1_455     S
He812     He187    10.019   1_455     S
He813     H691    10.003   1_554     S
He813     He182    10.019   1_554     S
He815     H765    10.003   1_455     S
He815     He177    10.019   1_455     S
He816     H763    10.003   1_545     S
He816     He184    10.019   1_545     S
