data_jai
_audit_creation_date              2020-02-02
_audit_creation_method            'Pymatgen'
_symmetry_space_group_name_H-M    'P1'
_symmetry_Int_Tables_number       1
loop_
_symmetry_equiv_pos_as_xyz
  x,y,z
_cell_length_a                    92.4604
_cell_length_b                    92.4604
_cell_length_c                    92.4604
_cell_angle_alpha                 90.0
_cell_angle_beta                 90.0
_cell_angle_gamma                 90.0
loop_
_atom_site_label
_atom_site_type_symbol
_atom_site_fract_x
_atom_site_fract_y
_atom_site_fract_z
S1     S     0.4619   0.4619   0.3856
S2     S     0.4619   0.3856   0.4619
S3     S     0.3856   0.4619   0.4619
Er4     Er     0.2778   0.4617   0.4617
Er5     Er     0.4617   0.2778   0.4617
Er6     Er     0.4617   0.4617   0.2778
S7     S     0.3856   0.5381   0.5381
S8     S     0.4619   0.6144   0.5381
S9     S     0.4619   0.5381   0.6144
Er10     Er     0.2778   0.5383   0.5383
Er11     Er     0.4617   0.7222   0.5383
Er12     Er     0.4617   0.5383   0.7222
S13     S     0.6144   0.4619   0.5381
S14     S     0.5381   0.4619   0.6144
S15     S     0.5381   0.3856   0.5381
Er16     Er     0.5383   0.2778   0.5383
Er17     Er     0.7222   0.4617   0.5383
Er18     Er     0.5383   0.4617   0.7222
S19     S     0.6144   0.5381   0.4619
S20     S     0.5381   0.6144   0.4619
S21     S     0.5381   0.5381   0.3856
Er22     Er     0.5383   0.5383   0.2778
Er23     Er     0.7222   0.5383   0.4617
Er24     Er     0.5383   0.7222   0.4617
Ce25     Ce     0.5968   0.1735   0.2499
Ce26     Ce     0.5968   0.2499   0.1735
Ce27     Ce     0.5968   0.2501   0.3265
Ce28     Ce     0.5968   0.3265   0.2501
Ce29     Ce     0.1735   0.2499   0.5968
Ce30     Ce     0.2499   0.1735   0.5968
Ce31     Ce     0.2501   0.3265   0.5968
Ce32     Ce     0.3265   0.2501   0.5968
Ce33     Ce     0.1735   0.5968   0.2499
Ce34     Ce     0.2499   0.5968   0.1735
Ce35     Ce     0.2501   0.5968   0.3265
Ce36     Ce     0.3265   0.5968   0.2501
Ce37     Ce     0.3265   0.2499   0.9032
Ce38     Ce     0.2501   0.1735   0.9032
Ce39     Ce     0.2499   0.3265   0.9032
Ce40     Ce     0.1735   0.2501   0.9032
Ce41     Ce     0.9032   0.3265   0.2499
Ce42     Ce     0.9032   0.2501   0.1735
Ce43     Ce     0.9032   0.2499   0.3265
Ce44     Ce     0.9032   0.1735   0.2501
Ce45     Ce     0.3265   0.9032   0.2499
Ce46     Ce     0.2501   0.9032   0.1735
Ce47     Ce     0.2499   0.9032   0.3265
Ce48     Ce     0.1735   0.9032   0.2501
V49     V     0.4029   0.1736   0.25
V50     V     0.4029   0.25   0.1736
Ti51     Ti     0.4997   0.1395   0.216
Ti52     Ti     0.4997   0.216   0.1395
V53     V     0.4029   0.25   0.3264
V54     V     0.4029   0.3264   0.25
Ti55     Ti     0.4997   0.284   0.3605
Ti56     Ti     0.4997   0.3605   0.284
V57     V     0.1736   0.25   0.4029
V58     V     0.25   0.1736   0.4029
Ti59     Ti     0.1395   0.216   0.4997
Ti60     Ti     0.216   0.1395   0.4997
V61     V     0.25   0.3264   0.4029
V62     V     0.3264   0.25   0.4029
Ti63     Ti     0.284   0.3605   0.4997
Ti64     Ti     0.3605   0.284   0.4997
V65     V     0.1736   0.4029   0.25
V66     V     0.25   0.4029   0.1736
Ti67     Ti     0.1395   0.4997   0.216
Ti68     Ti     0.216   0.4997   0.1395
V69     V     0.25   0.4029   0.3264
V70     V     0.3264   0.4029   0.25
Ti71     Ti     0.284   0.4997   0.3605
Ti72     Ti     0.3605   0.4997   0.284
V73     V     0.25   0.3264   0.0971
V74     V     0.1736   0.25   0.0971
Ti75     Ti     0.1395   0.284   0.0003
Ti76     Ti     0.216   0.3605   0.0003
V77     V     0.3264   0.25   0.0971
V78     V     0.25   0.1736   0.0971
Ti79     Ti     0.284   0.1395   0.0003
Ti80     Ti     0.3605   0.216   0.0003
V81     V     0.3264   0.0971   0.25
V82     V     0.25   0.0971   0.1736
Ti83     Ti     0.284   0.0003   0.1395
Ti84     Ti     0.3605   0.0003   0.216
V85     V     0.25   0.0971   0.3264
V86     V     0.1736   0.0971   0.25
Ti87     Ti     0.1395   0.0003   0.284
Ti88     Ti     0.216   0.0003   0.3605
V89     V     0.0971   0.3264   0.25
V90     V     0.0971   0.25   0.1736
Ti91     Ti     0.0003   0.284   0.1395
Ti92     Ti     0.0003   0.3605   0.216
V93     V     0.0971   0.25   0.3264
V94     V     0.0971   0.1736   0.25
Ti95     Ti     0.0003   0.1395   0.284
Ti96     Ti     0.0003   0.216   0.3605
Ce97     Ce     0.7499   0.6735   0.5968
Ce98     Ce     0.6735   0.7499   0.5968
Ce99     Ce     0.8265   0.7501   0.5968
Ce100     Ce     0.7501   0.8265   0.5968
Ce101     Ce     0.4032   0.7501   0.1735
Ce102     Ce     0.4032   0.8265   0.2499
Ce103     Ce     0.4032   0.6735   0.2501
Ce104     Ce     0.4032   0.7499   0.3265
Ce105     Ce     0.7501   0.4032   0.1735
Ce106     Ce     0.8265   0.4032   0.2499
Ce107     Ce     0.6735   0.4032   0.2501
Ce108     Ce     0.7499   0.4032   0.3265
Ce109     Ce     0.6735   0.7501   0.9032
Ce110     Ce     0.7499   0.8265   0.9032
Ce111     Ce     0.7501   0.6735   0.9032
Ce112     Ce     0.8265   0.7499   0.9032
Ce113     Ce     0.7501   0.0968   0.3265
Ce114     Ce     0.8265   0.0968   0.2501
Ce115     Ce     0.6735   0.0968   0.2499
Ce116     Ce     0.7499   0.0968   0.1735
Ce117     Ce     0.0968   0.7501   0.3265
Ce118     Ce     0.0968   0.8265   0.2501
Ce119     Ce     0.0968   0.6735   0.2499
Ce120     Ce     0.0968   0.7499   0.1735
V121     V     0.75   0.6736   0.4029
V122     V     0.6736   0.75   0.4029
Ti123     Ti     0.716   0.6395   0.4997
Ti124     Ti     0.6395   0.716   0.4997
V125     V     0.8264   0.75   0.4029
V126     V     0.75   0.8264   0.4029
Ti127     Ti     0.8605   0.784   0.4997
Ti128     Ti     0.784   0.8605   0.4997
V129     V     0.5971   0.75   0.1736
V130     V     0.5971   0.8264   0.25
Ti131     Ti     0.5003   0.8605   0.216
Ti132     Ti     0.5003   0.784   0.1395
V133     V     0.5971   0.75   0.3264
V134     V     0.5971   0.6736   0.25
Ti135     Ti     0.5003   0.716   0.3605
Ti136     Ti     0.5003   0.6395   0.284
V137     V     0.75   0.5971   0.1736
V138     V     0.8264   0.5971   0.25
Ti139     Ti     0.8605   0.5003   0.216
Ti140     Ti     0.784   0.5003   0.1395
V141     V     0.75   0.5971   0.3264
V142     V     0.6736   0.5971   0.25
Ti143     Ti     0.716   0.5003   0.3605
Ti144     Ti     0.6395   0.5003   0.284
V145     V     0.8264   0.75   0.0971
V146     V     0.75   0.6736   0.0971
Ti147     Ti     0.8605   0.716   0.0003
Ti148     Ti     0.784   0.6395   0.0003
V149     V     0.75   0.8264   0.0971
V150     V     0.6736   0.75   0.0971
Ti151     Ti     0.716   0.8605   0.0003
Ti152     Ti     0.6395   0.784   0.0003
V153     V     0.9029   0.75   0.1736
V154     V     0.9029   0.6736   0.25
Ti155     Ti     0.9997   0.716   0.1395
Ti156     Ti     0.9997   0.6395   0.216
V157     V     0.9029   0.75   0.3264
V158     V     0.9029   0.8264   0.25
Ti159     Ti     0.9997   0.8605   0.284
Ti160     Ti     0.9997   0.784   0.3605
V161     V     0.75   0.9029   0.1736
V162     V     0.6736   0.9029   0.25
Ti163     Ti     0.716   0.9997   0.1395
Ti164     Ti     0.6395   0.9997   0.216
V165     V     0.75   0.9029   0.3264
V166     V     0.8264   0.9029   0.25
Ti167     Ti     0.8605   0.9997   0.284
Ti168     Ti     0.784   0.9997   0.3605
S169     S     0.3856   0.0381   0.0381
S170     S     0.4619   0.1144   0.0381
S171     S     0.4619   0.0381   0.1144
Er172     Er     0.4617   0.0383   0.2222
Er173     Er     0.4617   0.2222   0.0383
Er174     Er     0.2778   0.0383   0.0383
S175     S     0.3856   0.9619   0.9619
S176     S     0.4619   0.8856   0.9619
S177     S     0.4619   0.9619   0.8856
Er178     Er     0.2778   0.9617   0.9617
Er179     Er     0.4617   0.9617   0.7778
Er180     Er     0.4617   0.7778   0.9617
S181     S     0.6144   0.9619   0.0381
S182     S     0.5381   0.8856   0.0381
S183     S     0.5381   0.9619   0.1144
Er184     Er     0.5383   0.9617   0.2222
Er185     Er     0.7222   0.9617   0.0383
Er186     Er     0.5383   0.7778   0.0383
S187     S     0.6144   0.0381   0.9619
S188     S     0.5381   0.0381   0.8856
S189     S     0.5381   0.1144   0.9619
Er190     Er     0.5383   0.2222   0.9617
Er191     Er     0.7222   0.0383   0.9617
Er192     Er     0.5383   0.0383   0.7778
Ce193     Ce     0.7499   0.5968   0.6735
Ce194     Ce     0.6735   0.5968   0.7499
Ce195     Ce     0.8265   0.5968   0.7501
Ce196     Ce     0.7501   0.5968   0.8265
Ce197     Ce     0.4032   0.1735   0.7501
Ce198     Ce     0.4032   0.2499   0.8265
Ce199     Ce     0.4032   0.2501   0.6735
Ce200     Ce     0.4032   0.3265   0.7499
Ce201     Ce     0.7501   0.1735   0.4032
Ce202     Ce     0.8265   0.2499   0.4032
Ce203     Ce     0.6735   0.2501   0.4032
Ce204     Ce     0.7499   0.3265   0.4032
Ce205     Ce     0.6735   0.9032   0.7501
Ce206     Ce     0.7499   0.9032   0.8265
Ce207     Ce     0.7501   0.9032   0.6735
Ce208     Ce     0.8265   0.9032   0.7499
Ce209     Ce     0.7501   0.3265   0.0968
Ce210     Ce     0.8265   0.2501   0.0968
Ce211     Ce     0.6735   0.2499   0.0968
Ce212     Ce     0.7499   0.1735   0.0968
Ce213     Ce     0.0968   0.3265   0.7501
Ce214     Ce     0.0968   0.2501   0.8265
Ce215     Ce     0.0968   0.2499   0.6735
Ce216     Ce     0.0968   0.1735   0.7499
V217     V     0.75   0.4029   0.6736
V218     V     0.6736   0.4029   0.75
Ti219     Ti     0.716   0.4997   0.6395
Ti220     Ti     0.6395   0.4997   0.716
V221     V     0.8264   0.4029   0.75
V222     V     0.75   0.4029   0.8264
Ti223     Ti     0.8605   0.4997   0.784
Ti224     Ti     0.784   0.4997   0.8605
V225     V     0.75   0.1736   0.9029
V226     V     0.6736   0.25   0.9029
Ti227     Ti     0.716   0.1395   0.9997
Ti228     Ti     0.6395   0.216   0.9997
V229     V     0.75   0.3264   0.9029
V230     V     0.8264   0.25   0.9029
Ti231     Ti     0.8605   0.284   0.9997
Ti232     Ti     0.784   0.3605   0.9997
V233     V     0.9029   0.1736   0.75
V234     V     0.9029   0.25   0.6736
Ti235     Ti     0.9997   0.1395   0.716
Ti236     Ti     0.9997   0.216   0.6395
V237     V     0.9029   0.3264   0.75
V238     V     0.9029   0.25   0.8264
Ti239     Ti     0.9997   0.284   0.8605
Ti240     Ti     0.9997   0.3605   0.784
V241     V     0.75   0.1736   0.5971
V242     V     0.8264   0.25   0.5971
Ti243     Ti     0.8605   0.216   0.5003
Ti244     Ti     0.784   0.1395   0.5003
V245     V     0.75   0.3264   0.5971
V246     V     0.6736   0.25   0.5971
Ti247     Ti     0.716   0.3605   0.5003
Ti248     Ti     0.6395   0.284   0.5003
V249     V     0.5971   0.1736   0.75
V250     V     0.5971   0.25   0.8264
Ti251     Ti     0.5003   0.216   0.8605
Ti252     Ti     0.5003   0.1395   0.784
V253     V     0.5971   0.3264   0.75
V254     V     0.5971   0.25   0.6736
Ti255     Ti     0.5003   0.3605   0.716
Ti256     Ti     0.5003   0.284   0.6395
V257     V     0.75   0.0971   0.8264
V258     V     0.6736   0.0971   0.75
Ti259     Ti     0.716   0.0003   0.8605
Ti260     Ti     0.6395   0.0003   0.784
V261     V     0.8264   0.0971   0.75
V262     V     0.75   0.0971   0.6736
Ti263     Ti     0.8605   0.0003   0.716
Ti264     Ti     0.784   0.0003   0.6395
S265     S     0.0381   0.3856   0.0381
S266     S     0.1144   0.4619   0.0381
S267     S     0.0381   0.4619   0.1144
Er268     Er     0.0383   0.4617   0.2222
Er269     Er     0.2222   0.4617   0.0383
Er270     Er     0.0383   0.2778   0.0383
S271     S     0.9619   0.3856   0.9619
S272     S     0.8856   0.4619   0.9619
S273     S     0.9619   0.4619   0.8856
Er274     Er     0.9617   0.2778   0.9617
Er275     Er     0.9617   0.4617   0.7778
Er276     Er     0.7778   0.4617   0.9617
S277     S     0.9619   0.6144   0.0381
S278     S     0.8856   0.5381   0.0381
S279     S     0.9619   0.5381   0.1144
Er280     Er     0.9617   0.5383   0.2222
Er281     Er     0.9617   0.7222   0.0383
Er282     Er     0.7778   0.5383   0.0383
S283     S     0.0381   0.6144   0.9619
S284     S     0.0381   0.5381   0.8856
S285     S     0.1144   0.5381   0.9619
Er286     Er     0.2222   0.5383   0.9617
Er287     Er     0.0383   0.7222   0.9617
Er288     Er     0.0383   0.5383   0.7778
S289     S     0.0381   0.9619   0.6144
S290     S     0.0381   0.8856   0.5381
S291     S     0.1144   0.9619   0.5381
Er292     Er     0.2222   0.9617   0.5383
Er293     Er     0.0383   0.9617   0.7222
Er294     Er     0.0383   0.7778   0.5383
S295     S     0.9619   0.0381   0.6144
S296     S     0.8856   0.0381   0.5381
S297     S     0.9619   0.1144   0.5381
Er298     Er     0.9617   0.2222   0.5383
Er299     Er     0.9617   0.0383   0.7222
Er300     Er     0.7778   0.0383   0.5383
S301     S     0.9619   0.9619   0.3856
S302     S     0.8856   0.9619   0.4619
S303     S     0.9619   0.8856   0.4619
Er304     Er     0.9617   0.9617   0.2778
Er305     Er     0.9617   0.7778   0.4617
Er306     Er     0.7778   0.9617   0.4617
S307     S     0.0381   0.0381   0.3856
S308     S     0.1144   0.0381   0.4619
S309     S     0.0381   0.1144   0.4619
Er310     Er     0.0383   0.2222   0.4617
Er311     Er     0.2222   0.0383   0.4617
Er312     Er     0.0383   0.0383   0.2778
Ce313     Ce     0.5968   0.7499   0.6735
Ce314     Ce     0.5968   0.6735   0.7499
Ce315     Ce     0.5968   0.8265   0.7501
Ce316     Ce     0.5968   0.7501   0.8265
Ce317     Ce     0.1735   0.4032   0.7501
Ce318     Ce     0.2499   0.4032   0.8265
Ce319     Ce     0.2501   0.4032   0.6735
Ce320     Ce     0.3265   0.4032   0.7499
Ce321     Ce     0.1735   0.7501   0.4032
Ce322     Ce     0.2499   0.8265   0.4032
Ce323     Ce     0.2501   0.6735   0.4032
Ce324     Ce     0.3265   0.7499   0.4032
Ce325     Ce     0.9032   0.6735   0.7501
Ce326     Ce     0.9032   0.7499   0.8265
Ce327     Ce     0.9032   0.7501   0.6735
Ce328     Ce     0.9032   0.8265   0.7499
Ce329     Ce     0.3265   0.7501   0.0968
Ce330     Ce     0.2501   0.8265   0.0968
Ce331     Ce     0.2499   0.6735   0.0968
Ce332     Ce     0.1735   0.7499   0.0968
Ce333     Ce     0.3265   0.0968   0.7501
Ce334     Ce     0.2501   0.0968   0.8265
Ce335     Ce     0.2499   0.0968   0.6735
Ce336     Ce     0.1735   0.0968   0.7499
V337     V     0.4029   0.75   0.6736
V338     V     0.4029   0.6736   0.75
Ti339     Ti     0.4997   0.716   0.6395
Ti340     Ti     0.4997   0.6395   0.716
V341     V     0.4029   0.8264   0.75
V342     V     0.4029   0.75   0.8264
Ti343     Ti     0.4997   0.8605   0.784
Ti344     Ti     0.4997   0.784   0.8605
V345     V     0.1736   0.75   0.9029
V346     V     0.25   0.6736   0.9029
Ti347     Ti     0.1395   0.716   0.9997
Ti348     Ti     0.216   0.6395   0.9997
V349     V     0.3264   0.75   0.9029
V350     V     0.25   0.8264   0.9029
Ti351     Ti     0.284   0.8605   0.9997
Ti352     Ti     0.3605   0.784   0.9997
V353     V     0.1736   0.9029   0.75
V354     V     0.25   0.9029   0.6736
Ti355     Ti     0.1395   0.9997   0.716
Ti356     Ti     0.216   0.9997   0.6395
V357     V     0.3264   0.9029   0.75
V358     V     0.25   0.9029   0.8264
Ti359     Ti     0.284   0.9997   0.8605
Ti360     Ti     0.3605   0.9997   0.784
V361     V     0.1736   0.75   0.5971
V362     V     0.25   0.8264   0.5971
Ti363     Ti     0.216   0.8605   0.5003
Ti364     Ti     0.1395   0.784   0.5003
V365     V     0.3264   0.75   0.5971
V366     V     0.25   0.6736   0.5971
Ti367     Ti     0.3605   0.716   0.5003
Ti368     Ti     0.284   0.6395   0.5003
V369     V     0.1736   0.5971   0.75
V370     V     0.25   0.5971   0.8264
Ti371     Ti     0.216   0.5003   0.8605
Ti372     Ti     0.1395   0.5003   0.784
V373     V     0.3264   0.5971   0.75
V374     V     0.25   0.5971   0.6736
Ti375     Ti     0.3605   0.5003   0.716
Ti376     Ti     0.284   0.5003   0.6395
V377     V     0.0971   0.75   0.8264
V378     V     0.0971   0.6736   0.75
Ti379     Ti     0.0003   0.716   0.8605
Ti380     Ti     0.0003   0.6395   0.784
V381     V     0.0971   0.8264   0.75
V382     V     0.0971   0.75   0.6736
Ti383     Ti     0.0003   0.8605   0.716
Ti384     Ti     0.0003   0.784   0.6395
loop_
_geom_bond_atom_site_label_1
_geom_bond_atom_site_label_2
_geom_bond_distance
_geom_bond_site_symmetry_2
_ccdc_geom_bond_type
S1     Er6    9.968   .     S
S1     S3    9.969   .     S
S1     S2    9.969   .     S
S1     S21    9.972   .     S
S2     Er5    9.968   .     S
S2     S3    9.969   .     S
S2     S15    9.972   .     S
S3     Er4    9.968   .     S
S3     S7    9.972   .     S
Er4     Er10    10.011   .     S
Er4     Ti71    10.017   .     S
Er4     Ti63    10.017   .     S
Er5     Er16    10.011   .     S
Er5     Ti55    10.017   .     S
Er5     Ti64    10.017   .     S
Er6     Er22    10.011   .     S
Er6     Ti56    10.017   .     S
Er6     Ti72    10.017   .     S
S7     Er10    9.968   .     S
S7     S9    9.969   .     S
S7     S8    9.969   .     S
S8     Er11    9.968   .     S
S8     S9    9.969   .     S
S8     S20    9.972   .     S
S9     Er12    9.968   .     S
S9     S14    9.972   .     S
Er10     Ti376    10.017   .     S
Er10     Ti368    10.017   .     S
Er11     Er24    10.011   .     S
Er11     Ti339    10.017   .     S
Er11     Ti367    10.017   .     S
Er12     Er18    10.011   .     S
Er12     Ti375    10.017   .     S
Er12     Ti340    10.017   .     S
S13     Er17    9.968   .     S
S13     S14    9.969   .     S
S13     S15    9.969   .     S
S13     S19    9.972   .     S
S14     Er18    9.968   .     S
S14     S15    9.969   .     S
S15     Er16    9.968   .     S
Er16     Ti256    10.017   .     S
Er16     Ti248    10.017   .     S
Er17     Er23    10.011   .     S
Er17     Ti219    10.017   .     S
Er17     Ti247    10.017   .     S
Er18     Ti220    10.017   .     S
Er18     Ti255    10.017   .     S
S19     Er23    9.968   .     S
S19     S21    9.969   .     S
S19     S20    9.969   .     S
S20     Er24    9.968   .     S
S20     S21    9.969   .     S
S21     Er22    9.968   .     S
Er22     Ti136    10.017   .     S
Er22     Ti144    10.017   .     S
Er23     Ti143    10.017   .     S
Er23     Ti123    10.017   .     S
Er24     Ti135    10.017   .     S
Er24     Ti124    10.017   .     S
Ce25     Ce27    10.014   .     S
Ce25     Ti51    10.014   .     S
Ce25     Ce115    10.023   .     S
Ce25     Ce26    9.998   .     S
Ce26     Ce28    10.014   .     S
Ce26     Ti52    10.014   .     S
Ce26     Ce211    10.023   .     S
Ce27     Ti55    10.014   .     S
Ce27     Ce203    10.023   .     S
Ce27     Ce28    9.998   .     S
Ce28     Ti56    10.014   .     S
Ce28     Ce107    10.023   .     S
Ce29     Ce31    10.014   .     S
Ce29     Ti59    10.014   .     S
Ce29     Ce215    10.023   .     S
Ce29     Ce30    9.998   .     S
Ce30     Ce32    10.014   .     S
Ce30     Ti60    10.014   .     S
Ce30     Ce335    10.023   .     S
Ce31     Ti63    10.014   .     S
Ce31     Ce319    10.023   .     S
Ce31     Ce32    9.998   .     S
Ce32     Ti64    10.014   .     S
Ce32     Ce199    10.023   .     S
Ce33     Ce35    10.014   .     S
Ce33     Ti67    10.014   .     S
Ce33     Ce119    10.023   .     S
Ce33     Ce34    9.998   .     S
Ce34     Ce36    10.014   .     S
Ce34     Ti68    10.014   .     S
Ce34     Ce331    10.023   .     S
Ce35     Ti71    10.014   .     S
Ce35     Ce323    10.023   .     S
Ce35     Ce36    9.998   .     S
Ce36     Ti72    10.014   .     S
Ce36     Ce103    10.023   .     S
Ce37     Ce39    10.014   .     S
Ce37     Ti80    10.014   1_556     S
Ce37     Ce198    10.023   .     S
Ce37     Ce38    9.998   .     S
Ce38     Ce40    10.014   .     S
Ce38     Ti79    10.014   1_556     S
Ce38     Ce334    10.023   .     S
Ce39     Ti76    10.014   1_556     S
Ce39     Ce318    10.023   .     S
Ce39     Ce40    9.998   .     S
Ce40     Ti75    10.014   1_556     S
Ce40     Ce214    10.023   .     S
Ce41     Ce43    10.014   .     S
Ce41     Ti92    10.014   1_655     S
Ce41     Ce106    10.023   .     S
Ce41     Ce42    9.998   .     S
Ce42     Ce44    10.014   .     S
Ce42     Ti91    10.014   1_655     S
Ce42     Ce210    10.023   .     S
Ce43     Ti96    10.014   1_655     S
Ce43     Ce202    10.023   .     S
Ce43     Ce44    9.998   .     S
Ce44     Ti95    10.014   1_655     S
Ce44     Ce114    10.023   .     S
Ce45     Ce47    10.014   .     S
Ce45     Ti84    10.014   1_565     S
Ce45     Ce102    10.023   .     S
Ce45     Ce46    9.998   .     S
Ce46     Ce48    10.014   .     S
Ce46     Ti83    10.014   1_565     S
Ce46     Ce330    10.023   .     S
Ce47     Ti88    10.014   1_565     S
Ce47     Ce322    10.023   .     S
Ce47     Ce48    9.998   .     S
Ce48     Ti87    10.014   1_565     S
Ce48     Ce118    10.023   .     S
V49     V50    9.986   .     S
V49     Ti51    9.996   .     S
V49     V53    9.997   .     S
V49     V81    10.0   .     S
V50     Ti52    9.996   .     S
V50     V54    9.997   .     S
V50     V77    10.0   .     S
Ti51     Ti52    10.003   .     S
Ti51     Er172    10.017   .     S
Ti52     Er173    10.017   .     S
V53     V54    9.986   .     S
V53     Ti55    9.996   .     S
V53     V62    10.0   .     S
V54     Ti56    9.996   .     S
V54     V70    10.0   .     S
Ti55     Ti56    10.003   .     S
V57     V58    9.986   .     S
V57     Ti59    9.996   .     S
V57     V61    9.997   .     S
V57     V93    10.0   .     S
V58     Ti60    9.996   .     S
V58     V62    9.997   .     S
V58     V85    10.0   .     S
Ti59     Ti60    10.003   .     S
Ti59     Er310    10.017   .     S
Ti60     Er311    10.017   .     S
V61     V62    9.986   .     S
V61     Ti63    9.996   .     S
V61     V69    10.0   .     S
V62     Ti64    9.996   .     S
Ti63     Ti64    10.003   .     S
V65     V66    9.986   .     S
V65     Ti67    9.996   .     S
V65     V69    9.997   .     S
V65     V89    10.0   .     S
V66     Ti68    9.996   .     S
V66     V70    9.997   .     S
V66     V73    10.0   .     S
Ti67     Ti68    10.003   .     S
Ti67     Er268    10.017   .     S
Ti68     Er269    10.017   .     S
V69     V70    9.986   .     S
V69     Ti71    9.996   .     S
V70     Ti72    9.996   .     S
Ti71     Ti72    10.003   .     S
V73     V74    9.986   .     S
V73     Ti76    9.996   .     S
V73     V77    9.997   .     S
V74     Ti75    9.996   .     S
V74     V78    9.997   .     S
V74     V90    10.0   .     S
Ti75     Ti76    10.003   .     S
Ti75     Ce40    10.014   1_554     S
Ti75     Er270    10.017   .     S
Ti76     Ce39    10.014   1_554     S
Ti76     Er269    10.017   .     S
V77     V78    9.986   .     S
V77     Ti80    9.996   .     S
V78     Ti79    9.996   .     S
V78     V82    10.0   .     S
Ti79     Ti80    10.003   .     S
Ti79     Ce38    10.014   1_554     S
Ti79     Er174    10.017   .     S
Ti80     Ce37    10.014   1_554     S
Ti80     Er173    10.017   .     S
V81     V82    9.986   .     S
V81     Ti84    9.996   .     S
V81     V85    9.997   .     S
V82     Ti83    9.996   .     S
V82     V86    9.997   .     S
Ti83     Ti84    10.003   .     S
Ti83     Ce46    10.014   1_545     S
Ti83     Er174    10.017   .     S
Ti84     Ce45    10.014   1_545     S
Ti84     Er172    10.017   .     S
V85     V86    9.986   .     S
V85     Ti88    9.996   .     S
V86     Ti87    9.996   .     S
V86     V94    10.0   .     S
Ti87     Ti88    10.003   .     S
Ti87     Ce48    10.014   1_545     S
Ti87     Er312    10.017   .     S
Ti88     Ce47    10.014   1_545     S
Ti88     Er311    10.017   .     S
V89     V90    9.986   .     S
V89     Ti92    9.996   .     S
V89     V93    9.997   .     S
V90     Ti91    9.996   .     S
V90     V94    9.997   .     S
Ti91     Ti92    10.003   .     S
Ti91     Ce42    10.014   1_455     S
Ti91     Er270    10.017   .     S
Ti92     Ce41    10.014   1_455     S
Ti92     Er268    10.017   .     S
V93     V94    9.986   .     S
V93     Ti96    9.996   .     S
V94     Ti95    9.996   .     S
Ti95     Ti96    10.003   .     S
Ti95     Ce44    10.014   1_455     S
Ti95     Er312    10.017   .     S
Ti96     Ce43    10.014   1_455     S
Ti96     Er310    10.017   .     S
Ce97     Ce99    10.014   .     S
Ce97     Ti123    10.014   .     S
Ce97     Ce193    10.023   .     S
Ce97     Ce98    9.998   .     S
Ce98     Ce100    10.014   .     S
Ce98     Ti124    10.014   .     S
Ce98     Ce313    10.023   .     S
Ce99     Ti127    10.014   .     S
Ce99     Ce327    10.023   .     S
Ce99     Ce100    9.998   .     S
Ce100     Ti128    10.014   .     S
Ce100     Ce207    10.023   .     S
Ce101     Ce103    10.014   .     S
Ce101     Ti132    10.014   .     S
Ce101     Ce329    10.023   .     S
Ce101     Ce102    9.998   .     S
Ce102     Ce104    10.014   .     S
Ce102     Ti131    10.014   .     S
Ce103     Ti136    10.014   .     S
Ce103     Ce104    9.998   .     S
Ce104     Ti135    10.014   .     S
Ce104     Ce324    10.023   .     S
Ce105     Ce107    10.014   .     S
Ce105     Ti140    10.014   .     S
Ce105     Ce209    10.023   .     S
Ce105     Ce106    9.998   .     S
Ce106     Ce108    10.014   .     S
Ce106     Ti139    10.014   .     S
Ce107     Ti144    10.014   .     S
Ce107     Ce108    9.998   .     S
Ce108     Ti143    10.014   .     S
Ce108     Ce204    10.023   .     S
Ce109     Ce111    10.014   .     S
Ce109     Ti152    10.014   1_556     S
Ce109     Ce316    10.023   .     S
Ce109     Ce110    9.998   .     S
Ce110     Ce112    10.014   .     S
Ce110     Ti151    10.014   1_556     S
Ce110     Ce206    10.023   .     S
Ce111     Ti148    10.014   1_556     S
Ce111     Ce196    10.023   .     S
Ce111     Ce112    9.998   .     S
Ce112     Ti147    10.014   1_556     S
Ce112     Ce326    10.023   .     S
Ce113     Ce115    10.014   .     S
Ce113     Ti168    10.014   1_545     S
Ce113     Ce201    10.023   .     S
Ce113     Ce114    9.998   .     S
Ce114     Ce116    10.014   .     S
Ce114     Ti167    10.014   1_545     S
Ce115     Ti164    10.014   1_545     S
Ce115     Ce116    9.998   .     S
Ce116     Ti163    10.014   1_545     S
Ce116     Ce212    10.023   .     S
Ce117     Ce119    10.014   .     S
Ce117     Ti160    10.014   1_455     S
Ce117     Ce321    10.023   .     S
Ce117     Ce118    9.998   .     S
Ce118     Ce120    10.014   .     S
Ce118     Ti159    10.014   1_455     S
Ce119     Ti156    10.014   1_455     S
Ce119     Ce120    9.998   .     S
Ce120     Ti155    10.014   1_455     S
Ce120     Ce332    10.023   .     S
V121     V122    9.986   .     S
V121     Ti123    9.996   .     S
V121     V125    9.997   .     S
V121     V141    10.0   .     S
V122     Ti124    9.996   .     S
V122     V126    9.997   .     S
V122     V133    10.0   .     S
Ti123     Ti124    10.003   .     S
V125     V126    9.986   .     S
V125     Ti127    9.996   .     S
V125     V157    10.0   .     S
V126     Ti128    9.996   .     S
V126     V165    10.0   .     S
Ti127     Ti128    10.003   .     S
Ti127     Er305    10.017   .     S
Ti128     Er306    10.017   .     S
V129     V130    9.986   .     S
V129     Ti132    9.996   .     S
V129     V134    9.997   .     S
V129     V150    10.0   .     S
V130     Ti131    9.996   .     S
V130     V133    9.997   .     S
V130     V162    10.0   .     S
Ti131     Ti132    10.003   .     S
Ti131     Er184    10.017   .     S
Ti132     Er186    10.017   .     S
V133     V134    9.986   .     S
V133     Ti135    9.996   .     S
V134     Ti136    9.996   .     S
V134     V142    10.0   .     S
Ti135     Ti136    10.003   .     S
V137     V138    9.986   .     S
V137     Ti140    9.996   .     S
V137     V142    9.997   .     S
V137     V146    10.0   .     S
V138     Ti139    9.996   .     S
V138     V141    9.997   .     S
V138     V154    10.0   .     S
Ti139     Ti140    10.003   .     S
Ti139     Er280    10.017   .     S
Ti140     Er282    10.017   .     S
V141     V142    9.986   .     S
V141     Ti143    9.996   .     S
V142     Ti144    9.996   .     S
Ti143     Ti144    10.003   .     S
V145     V146    9.986   .     S
V145     Ti147    9.996   .     S
V145     V149    9.997   .     S
V145     V153    10.0   .     S
V146     Ti148    9.996   .     S
V146     V150    9.997   .     S
Ti147     Ti148    10.003   .     S
Ti147     Ce112    10.014   1_554     S
Ti147     Er281    10.017   .     S
Ti148     Ce111    10.014   1_554     S
Ti148     Er282    10.017   .     S
V149     V150    9.986   .     S
V149     Ti151    9.996   .     S
V149     V161    10.0   .     S
V150     Ti152    9.996   .     S
Ti151     Ti152    10.003   .     S
Ti151     Ce110    10.014   1_554     S
Ti151     Er185    10.017   .     S
Ti152     Ce109    10.014   1_554     S
Ti152     Er186    10.017   .     S
V153     V154    9.986   .     S
V153     Ti155    9.996   .     S
V153     V158    9.997   .     S
V154     Ti156    9.996   .     S
V154     V157    9.997   .     S
Ti155     Ti156    10.003   .     S
Ti155     Ce120    10.014   1_655     S
Ti155     Er281    10.017   .     S
Ti156     Ce119    10.014   1_655     S
Ti156     Er280    10.017   .     S
V157     V158    9.986   .     S
V157     Ti160    9.996   .     S
V158     Ti159    9.996   .     S
V158     V166    10.0   .     S
Ti159     Ti160    10.003   .     S
Ti159     Ce118    10.014   1_655     S
Ti159     Er304    10.017   .     S
Ti160     Ce117    10.014   1_655     S
Ti160     Er305    10.017   .     S
V161     V162    9.986   .     S
V161     Ti163    9.996   .     S
V161     V166    9.997   .     S
V162     Ti164    9.996   .     S
V162     V165    9.997   .     S
Ti163     Ti164    10.003   .     S
Ti163     Ce116    10.014   1_565     S
Ti163     Er185    10.017   .     S
Ti164     Ce115    10.014   1_565     S
Ti164     Er184    10.017   .     S
V165     V166    9.986   .     S
V165     Ti168    9.996   .     S
V166     Ti167    9.996   .     S
Ti167     Ti168    10.003   .     S
Ti167     Ce114    10.014   1_565     S
Ti167     Er304    10.017   .     S
Ti168     Ce113    10.014   1_565     S
Ti168     Er306    10.017   .     S
S169     Er174    9.968   .     S
S169     S170    9.969   .     S
S169     S171    9.969   .     S
S169     S175    9.972   1_544     S
S170     Er173    9.968   .     S
S170     S171    9.969   .     S
S170     S189    9.972   1_554     S
S171     Er172    9.968   .     S
S171     S183    9.972   1_545     S
Er172     Er184    10.011   1_545     S
Er173     Er190    10.011   1_554     S
Er174     Er178    10.011   1_544     S
S175     S169    9.972   1_566     S
S175     Er178    9.968   .     S
S175     S177    9.969   .     S
S175     S176    9.969   .     S
S176     Er180    9.968   .     S
S176     S177    9.969   .     S
S176     S182    9.972   1_556     S
S177     Er179    9.968   .     S
S177     S188    9.972   1_565     S
Er178     Er174    10.011   1_566     S
Er178     Ti359    10.017   .     S
Er178     Ti351    10.017   .     S
Er179     Er192    10.011   1_565     S
Er179     Ti343    10.017   .     S
Er179     Ti360    10.017   .     S
Er180     Er186    10.011   1_556     S
Er180     Ti344    10.017   .     S
Er180     Ti352    10.017   .     S
S181     Er185    9.968   .     S
S181     S182    9.969   .     S
S181     S183    9.969   .     S
S181     S187    9.972   1_564     S
S182     Er186    9.968   .     S
S182     S183    9.969   .     S
S182     S176    9.972   1_554     S
S183     S171    9.972   1_565     S
S183     Er184    9.968   .     S
Er184     Er172    10.011   1_565     S
Er185     Er191    10.011   1_564     S
Er186     Er180    10.011   1_554     S
S187     Er191    9.968   .     S
S187     S188    9.969   .     S
S187     S189    9.969   .     S
S187     S181    9.972   1_546     S
S188     Er192    9.968   .     S
S188     S189    9.969   .     S
S188     S177    9.972   1_545     S
S189     S170    9.972   1_556     S
S189     Er190    9.968   .     S
Er190     Er173    10.011   1_556     S
Er190     Ti251    10.017   .     S
Er190     Ti228    10.017   .     S
Er191     Er185    10.011   1_546     S
Er191     Ti259    10.017   .     S
Er191     Ti227    10.017   .     S
Er192     Er179    10.011   1_545     S
Er192     Ti260    10.017   .     S
Er192     Ti252    10.017   .     S
Ce193     Ce195    10.014   .     S
Ce193     Ti219    10.014   .     S
Ce193     Ce194    9.998   .     S
Ce194     Ce196    10.014   .     S
Ce194     Ti220    10.014   .     S
Ce194     Ce314    10.023   .     S
Ce195     Ti223    10.014   .     S
Ce195     Ce325    10.023   .     S
Ce195     Ce196    9.998   .     S
Ce196     Ti224    10.014   .     S
Ce197     Ce199    10.014   .     S
Ce197     Ti252    10.014   .     S
Ce197     Ce333    10.023   .     S
Ce197     Ce198    9.998   .     S
Ce198     Ce200    10.014   .     S
Ce198     Ti251    10.014   .     S
Ce199     Ti256    10.014   .     S
Ce199     Ce200    9.998   .     S
Ce200     Ti255    10.014   .     S
Ce200     Ce320    10.023   .     S
Ce201     Ce203    10.014   .     S
Ce201     Ti244    10.014   .     S
Ce201     Ce202    9.998   .     S
Ce202     Ce204    10.014   .     S
Ce202     Ti243    10.014   .     S
Ce203     Ti248    10.014   .     S
Ce203     Ce204    9.998   .     S
Ce204     Ti247    10.014   .     S
Ce205     Ce207    10.014   .     S
Ce205     Ti260    10.014   1_565     S
Ce205     Ce315    10.023   .     S
Ce205     Ce206    9.998   .     S
Ce206     Ce208    10.014   .     S
Ce206     Ti259    10.014   1_565     S
Ce207     Ti264    10.014   1_565     S
Ce207     Ce208    9.998   .     S
Ce208     Ti263    10.014   1_565     S
Ce208     Ce328    10.023   .     S
Ce209     Ce211    10.014   .     S
Ce209     Ti232    10.014   1_554     S
Ce209     Ce210    9.998   .     S
Ce210     Ce212    10.014   .     S
Ce210     Ti231    10.014   1_554     S
Ce211     Ti228    10.014   1_554     S
Ce211     Ce212    9.998   .     S
Ce212     Ti227    10.014   1_554     S
Ce213     Ce215    10.014   .     S
Ce213     Ti240    10.014   1_455     S
Ce213     Ce317    10.023   .     S
Ce213     Ce214    9.998   .     S
Ce214     Ce216    10.014   .     S
Ce214     Ti239    10.014   1_455     S
Ce215     Ti236    10.014   1_455     S
Ce215     Ce216    9.998   .     S
Ce216     Ti235    10.014   1_455     S
Ce216     Ce336    10.023   .     S
V217     V218    9.986   .     S
V217     Ti219    9.996   .     S
V217     V221    9.997   .     S
V217     V245    10.0   .     S
V218     Ti220    9.996   .     S
V218     V222    9.997   .     S
V218     V253    10.0   .     S
Ti219     Ti220    10.003   .     S
V221     V222    9.986   .     S
V221     Ti223    9.996   .     S
V221     V237    10.0   .     S
V222     Ti224    9.996   .     S
V222     V229    10.0   .     S
Ti223     Ti224    10.003   .     S
Ti223     Er275    10.017   .     S
Ti224     Er276    10.017   .     S
V225     V226    9.986   .     S
V225     Ti227    9.996   .     S
V225     V230    9.997   .     S
V225     V257    10.0   .     S
V226     Ti228    9.996   .     S
V226     V229    9.997   .     S
V226     V250    10.0   .     S
Ti227     Ti228    10.003   .     S
Ti227     Ce212    10.014   1_556     S
Ti228     Ce211    10.014   1_556     S
V229     V230    9.986   .     S
V229     Ti232    9.996   .     S
V230     Ti231    9.996   .     S
V230     V238    10.0   .     S
Ti231     Ti232    10.003   .     S
Ti231     Ce210    10.014   1_556     S
Ti231     Er274    10.017   .     S
Ti232     Ce209    10.014   1_556     S
Ti232     Er276    10.017   .     S
V233     V234    9.986   .     S
V233     Ti235    9.996   .     S
V233     V238    9.997   .     S
V233     V261    10.0   .     S
V234     Ti236    9.996   .     S
V234     V237    9.997   .     S
V234     V242    10.0   .     S
Ti235     Ti236    10.003   .     S
Ti235     Ce216    10.014   1_655     S
Ti235     Er299    10.017   .     S
Ti236     Ce215    10.014   1_655     S
Ti236     Er298    10.017   .     S
V237     V238    9.986   .     S
V237     Ti240    9.996   .     S
V238     Ti239    9.996   .     S
Ti239     Ti240    10.003   .     S
Ti239     Ce214    10.014   1_655     S
Ti239     Er274    10.017   .     S
Ti240     Ce213    10.014   1_655     S
Ti240     Er275    10.017   .     S
V241     V242    9.986   .     S
V241     Ti244    9.996   .     S
V241     V246    9.997   .     S
V241     V262    10.0   .     S
V242     Ti243    9.996   .     S
V242     V245    9.997   .     S
Ti243     Ti244    10.003   .     S
Ti243     Er298    10.017   .     S
Ti244     Er300    10.017   .     S
V245     V246    9.986   .     S
V245     Ti247    9.996   .     S
V246     Ti248    9.996   .     S
V246     V254    10.0   .     S
Ti247     Ti248    10.003   .     S
V249     V250    9.986   .     S
V249     Ti252    9.996   .     S
V249     V254    9.997   .     S
V249     V258    10.0   .     S
V250     Ti251    9.996   .     S
V250     V253    9.997   .     S
Ti251     Ti252    10.003   .     S
V253     V254    9.986   .     S
V253     Ti255    9.996   .     S
V254     Ti256    9.996   .     S
Ti255     Ti256    10.003   .     S
V257     V258    9.986   .     S
V257     Ti259    9.996   .     S
V257     V261    9.997   .     S
V258     Ti260    9.996   .     S
V258     V262    9.997   .     S
Ti259     Ti260    10.003   .     S
Ti259     Ce206    10.014   1_545     S
Ti260     Ce205    10.014   1_545     S
V261     V262    9.986   .     S
V261     Ti263    9.996   .     S
V262     Ti264    9.996   .     S
Ti263     Ti264    10.003   .     S
Ti263     Ce208    10.014   1_545     S
Ti263     Er299    10.017   .     S
Ti264     Ce207    10.014   1_545     S
Ti264     Er300    10.017   .     S
S265     Er270    9.968   .     S
S265     S266    9.969   .     S
S265     S267    9.969   .     S
S265     S271    9.972   1_454     S
S266     Er269    9.968   .     S
S266     S267    9.969   .     S
S266     S285    9.972   1_554     S
S267     Er268    9.968   .     S
S267     S279    9.972   1_455     S
Er268     Er280    10.011   1_455     S
Er269     Er286    10.011   1_554     S
Er270     Er274    10.011   1_454     S
S271     S265    9.972   1_656     S
S271     Er274    9.968   .     S
S271     S273    9.969   .     S
S271     S272    9.969   .     S
S272     Er276    9.968   .     S
S272     S273    9.969   .     S
S272     S278    9.972   1_556     S
S273     Er275    9.968   .     S
S273     S284    9.972   1_655     S
Er274     Er270    10.011   1_656     S
Er275     Er288    10.011   1_655     S
Er276     Er282    10.011   1_556     S
S277     Er281    9.968   .     S
S277     S278    9.969   .     S
S277     S279    9.969   .     S
S277     S283    9.972   1_654     S
S278     Er282    9.968   .     S
S278     S279    9.969   .     S
S278     S272    9.972   1_554     S
S279     S267    9.972   1_655     S
S279     Er280    9.968   .     S
Er280     Er268    10.011   1_655     S
Er281     Er287    10.011   1_654     S
Er282     Er276    10.011   1_554     S
S283     Er287    9.968   .     S
S283     S284    9.969   .     S
S283     S285    9.969   .     S
S283     S277    9.972   1_456     S
S284     Er288    9.968   .     S
S284     S285    9.969   .     S
S284     S273    9.972   1_455     S
S285     S266    9.972   1_556     S
S285     Er286    9.968   .     S
Er286     Er269    10.011   1_556     S
Er286     Ti371    10.017   .     S
Er286     Ti348    10.017   .     S
Er287     Er281    10.011   1_456     S
Er287     Ti379    10.017   .     S
Er287     Ti347    10.017   .     S
Er288     Er275    10.011   1_455     S
Er288     Ti380    10.017   .     S
Er288     Ti372    10.017   .     S
S289     Er293    9.968   .     S
S289     S290    9.969   .     S
S289     S291    9.969   .     S
S289     S295    9.972   1_465     S
S290     Er294    9.968   .     S
S290     S291    9.969   .     S
S290     S303    9.972   1_455     S
S291     Er292    9.968   .     S
S291     S308    9.972   1_565     S
Er292     Er311    10.011   1_565     S
Er292     Ti363    10.017   .     S
Er292     Ti356    10.017   .     S
Er293     Er299    10.011   1_465     S
Er293     Ti383    10.017   .     S
Er293     Ti355    10.017   .     S
Er294     Er305    10.011   1_455     S
Er294     Ti384    10.017   .     S
Er294     Ti364    10.017   .     S
S295     Er299    9.968   .     S
S295     S296    9.969   .     S
S295     S297    9.969   .     S
S295     S289    9.972   1_645     S
S296     Er300    9.968   .     S
S296     S297    9.969   .     S
S296     S302    9.972   1_545     S
S297     Er298    9.968   .     S
S297     S309    9.972   1_655     S
Er298     Er310    10.011   1_655     S
Er299     Er293    10.011   1_645     S
Er300     Er306    10.011   1_545     S
S301     Er304    9.968   .     S
S301     S303    9.969   .     S
S301     S302    9.969   .     S
S301     S307    9.972   1_665     S
S302     S296    9.972   1_565     S
S302     Er306    9.968   .     S
S302     S303    9.969   .     S
S303     S290    9.972   1_655     S
S303     Er305    9.968   .     S
Er304     Er312    10.011   1_665     S
Er305     Er294    10.011   1_655     S
Er306     Er300    10.011   1_565     S
S307     Er312    9.968   .     S
S307     S308    9.969   .     S
S307     S309    9.969   .     S
S307     S301    9.972   1_445     S
S308     Er311    9.968   .     S
S308     S309    9.969   .     S
S308     S291    9.972   1_545     S
S309     Er310    9.968   .     S
S309     S297    9.972   1_455     S
Er310     Er298    10.011   1_455     S
Er311     Er292    10.011   1_545     S
Er312     Er304    10.011   1_445     S
Ce313     Ce315    10.014   .     S
Ce313     Ti339    10.014   .     S
Ce313     Ce314    9.998   .     S
Ce314     Ce316    10.014   .     S
Ce314     Ti340    10.014   .     S
Ce315     Ti343    10.014   .     S
Ce315     Ce316    9.998   .     S
Ce316     Ti344    10.014   .     S
Ce317     Ce319    10.014   .     S
Ce317     Ti372    10.014   .     S
Ce317     Ce318    9.998   .     S
Ce318     Ce320    10.014   .     S
Ce318     Ti371    10.014   .     S
Ce319     Ti376    10.014   .     S
Ce319     Ce320    9.998   .     S
Ce320     Ti375    10.014   .     S
Ce321     Ce323    10.014   .     S
Ce321     Ti364    10.014   .     S
Ce321     Ce322    9.998   .     S
Ce322     Ce324    10.014   .     S
Ce322     Ti363    10.014   .     S
Ce323     Ti368    10.014   .     S
Ce323     Ce324    9.998   .     S
Ce324     Ti367    10.014   .     S
Ce325     Ce327    10.014   .     S
Ce325     Ti380    10.014   1_655     S
Ce325     Ce326    9.998   .     S
Ce326     Ce328    10.014   .     S
Ce326     Ti379    10.014   1_655     S
Ce327     Ti384    10.014   1_655     S
Ce327     Ce328    9.998   .     S
Ce328     Ti383    10.014   1_655     S
Ce329     Ce331    10.014   .     S
Ce329     Ti352    10.014   1_554     S
Ce329     Ce330    9.998   .     S
Ce330     Ce332    10.014   .     S
Ce330     Ti351    10.014   1_554     S
Ce331     Ti348    10.014   1_554     S
Ce331     Ce332    9.998   .     S
Ce332     Ti347    10.014   1_554     S
Ce333     Ce335    10.014   .     S
Ce333     Ti360    10.014   1_545     S
Ce333     Ce334    9.998   .     S
Ce334     Ce336    10.014   .     S
Ce334     Ti359    10.014   1_545     S
Ce335     Ti356    10.014   1_545     S
Ce335     Ce336    9.998   .     S
Ce336     Ti355    10.014   1_545     S
V337     V338    9.986   .     S
V337     Ti339    9.996   .     S
V337     V341    9.997   .     S
V337     V365    10.0   .     S
V338     Ti340    9.996   .     S
V338     V342    9.997   .     S
V338     V373    10.0   .     S
Ti339     Ti340    10.003   .     S
V341     V342    9.986   .     S
V341     Ti343    9.996   .     S
V341     V357    10.0   .     S
V342     Ti344    9.996   .     S
V342     V349    10.0   .     S
Ti343     Ti344    10.003   .     S
V345     V346    9.986   .     S
V345     Ti347    9.996   .     S
V345     V350    9.997   .     S
V345     V377    10.0   .     S
V346     Ti348    9.996   .     S
V346     V349    9.997   .     S
V346     V370    10.0   .     S
Ti347     Ti348    10.003   .     S
Ti347     Ce332    10.014   1_556     S
Ti348     Ce331    10.014   1_556     S
V349     V350    9.986   .     S
V349     Ti352    9.996   .     S
V350     Ti351    9.996   .     S
V350     V358    10.0   .     S
Ti351     Ti352    10.003   .     S
Ti351     Ce330    10.014   1_556     S
Ti352     Ce329    10.014   1_556     S
V353     V354    9.986   .     S
V353     Ti355    9.996   .     S
V353     V358    9.997   .     S
V353     V381    10.0   .     S
V354     Ti356    9.996   .     S
V354     V357    9.997   .     S
V354     V362    10.0   .     S
Ti355     Ti356    10.003   .     S
Ti355     Ce336    10.014   1_565     S
Ti356     Ce335    10.014   1_565     S
V357     V358    9.986   .     S
V357     Ti360    9.996   .     S
V358     Ti359    9.996   .     S
Ti359     Ti360    10.003   .     S
Ti359     Ce334    10.014   1_565     S
Ti360     Ce333    10.014   1_565     S
V361     V362    9.986   .     S
V361     Ti364    9.996   .     S
V361     V366    9.997   .     S
V361     V382    10.0   .     S
V362     Ti363    9.996   .     S
V362     V365    9.997   .     S
Ti363     Ti364    10.003   .     S
V365     V366    9.986   .     S
V365     Ti367    9.996   .     S
V366     Ti368    9.996   .     S
V366     V374    10.0   .     S
Ti367     Ti368    10.003   .     S
V369     V370    9.986   .     S
V369     Ti372    9.996   .     S
V369     V374    9.997   .     S
V369     V378    10.0   .     S
V370     Ti371    9.996   .     S
V370     V373    9.997   .     S
Ti371     Ti372    10.003   .     S
V373     V374    9.986   .     S
V373     Ti375    9.996   .     S
V374     Ti376    9.996   .     S
Ti375     Ti376    10.003   .     S
V377     V378    9.986   .     S
V377     Ti379    9.996   .     S
V377     V381    9.997   .     S
V378     Ti380    9.996   .     S
V378     V382    9.997   .     S
Ti379     Ti380    10.003   .     S
Ti379     Ce326    10.014   1_455     S
Ti380     Ce325    10.014   1_455     S
V381     V382    9.986   .     S
V381     Ti383    9.996   .     S
V382     Ti384    9.996   .     S
Ti383     Ti384    10.003   .     S
Ti383     Ce328    10.014   1_455     S
Ti384     Ce327    10.014   1_455     S
