data_jus
_audit_creation_date              2020-02-02
_audit_creation_method            'Pymatgen'
_symmetry_space_group_name_H-M    'P1'
_symmetry_Int_Tables_number       1
loop_
_symmetry_equiv_pos_as_xyz
  x,y,z
_cell_length_a                    24.2046
_cell_length_b                    30.5441
_cell_length_c                    18.0918
_cell_angle_alpha                 90.0
_cell_angle_beta                 90.0
_cell_angle_gamma                 90.0
loop_
_atom_site_label
_atom_site_type_symbol
_atom_site_fract_x
_atom_site_fract_y
_atom_site_fract_z
V1     V     0.0   0.1495   0.25
Er2     Er     0.1748   0.1471   0.75
Er3     Er     0.8252   0.1471   0.75
V4     V     0.0   0.8505   0.75
Er5     Er     0.1748   0.8529   0.25
Er6     Er     0.8252   0.8529   0.25
V7     V     0.5   0.6495   0.25
Er8     Er     0.6748   0.6471   0.75
Er9     Er     0.3252   0.6471   0.75
V10     V     0.5   0.3505   0.75
Er11     Er     0.3252   0.3529   0.25
Er12     Er     0.6748   0.3529   0.25
loop_
_geom_bond_atom_site_label_1
_geom_bond_atom_site_label_2
_geom_bond_distance
_geom_bond_site_symmetry_2
_ccdc_geom_bond_type
V1     Er12    10.027   1_455     S
V1     Er11    10.027   .     S
V1     Er3    9.987   1_455     S
V1     Er2    9.987   .     S
V1     Er2    9.987   1_554     S
V1     Er3    9.987   1_454     S
V1     Er5    9.999   1_545     S
V1     Er6    9.999   1_445     S
Er2     V10    10.027   .     S
Er2     V4    9.999   1_545     S
Er2     V1    9.987   1_556     S
Er3     V10    10.027   .     S
Er3     V4    9.999   1_645     S
Er3     V1    9.987   1_655     S
Er3     V1    9.987   1_656     S
V4     Er8    10.027   1_455     S
V4     Er9    10.027   .     S
V4     Er3    9.999   1_465     S
V4     Er2    9.999   1_565     S
V4     Er6    9.987   1_455     S
V4     Er5    9.987   .     S
V4     Er5    9.987   1_556     S
V4     Er6    9.987   1_456     S
Er5     V7    10.027   .     S
Er5     V1    9.999   1_565     S
Er5     V4    9.987   1_554     S
Er6     V7    10.027   .     S
Er6     V1    9.999   1_665     S
Er6     V4    9.987   1_655     S
Er6     V4    9.987   1_654     S
V7     Er9    9.987   .     S
V7     Er8    9.987   .     S
V7     Er8    9.987   1_554     S
V7     Er9    9.987   1_554     S
V7     Er12    9.999   .     S
V7     Er11    9.999   .     S
Er8     V4    10.027   1_655     S
Er8     V10    9.999   .     S
Er8     V7    9.987   1_556     S
Er9     V10    9.999   .     S
Er9     V7    9.987   1_556     S
V10     Er12    9.987   1_556     S
V10     Er11    9.987   1_556     S
V10     Er11    9.987   .     S
V10     Er12    9.987   .     S
Er11     V10    9.987   1_554     S
Er12     V1    10.027   1_655     S
Er12     V10    9.987   1_554     S
