data_kcea
_audit_creation_date              2020-02-02
_audit_creation_method            'Pymatgen'
_symmetry_space_group_name_H-M    'P1'
_symmetry_Int_Tables_number       1
loop_
_symmetry_equiv_pos_as_xyz
  x,y,z
_cell_length_a                    99.9278
_cell_length_b                    99.9278
_cell_length_c                    99.9278
_cell_angle_alpha                 90.0
_cell_angle_beta                 90.0
_cell_angle_gamma                 90.0
loop_
_atom_site_label
_atom_site_type_symbol
_atom_site_fract_x
_atom_site_fract_y
_atom_site_fract_z
Ce1     Ce     0.2211   0.2919   0.1503
Ce2     Ce     0.2919   0.2211   0.1503
Ce3     Ce     0.2081   0.3497   0.2789
Ce4     Ce     0.2789   0.3497   0.2081
Ce5     Ce     0.3497   0.2081   0.2789
Ce6     Ce     0.3497   0.2789   0.2081
Ce7     Ce     0.2211   0.1503   0.2919
Ce8     Ce     0.2919   0.1503   0.2211
Ce9     Ce     0.1503   0.2211   0.2919
Ce10     Ce     0.1503   0.2919   0.2211
Ce11     Ce     0.2081   0.2789   0.3497
Ce12     Ce     0.2789   0.2081   0.3497
V13     V     0.2094   0.2793   0.5501
V14     V     0.2094   0.2793   0.4499
V15     V     0.2094   0.4499   0.2793
V16     V     0.2094   0.5501   0.2793
V17     V     0.2094   0.7207   0.4499
V18     V     0.2094   0.7207   0.5501
V19     V     0.2094   0.5501   0.7207
V20     V     0.2094   0.4499   0.7207
Ti21     Ti     0.1214   0.5   0.4293
Ti22     Ti     0.1214   0.4293   0.5
Ti23     Ti     0.1214   0.5707   0.5
Ti24     Ti     0.1214   0.5   0.5707
Er25     Er     0.1403   0.5   0.3312
Er26     Er     0.1403   0.3312   0.5
Er27     Er     0.1403   0.5   0.6688
Er28     Er     0.1403   0.6688   0.5
V29     V     0.2793   0.7906   0.5501
V30     V     0.2793   0.7906   0.4499
V31     V     0.4499   0.7906   0.2793
V32     V     0.5501   0.7906   0.2793
V33     V     0.7207   0.7906   0.4499
V34     V     0.7207   0.7906   0.5501
V35     V     0.5501   0.7906   0.7207
V36     V     0.4499   0.7906   0.7207
Ti37     Ti     0.5   0.8786   0.4293
Ti38     Ti     0.4293   0.8786   0.5
Ti39     Ti     0.5707   0.8786   0.5
Ti40     Ti     0.5   0.8786   0.5707
Er41     Er     0.5   0.8597   0.3312
Er42     Er     0.3312   0.8597   0.5
Er43     Er     0.5   0.8597   0.6688
Er44     Er     0.6688   0.8597   0.5
V45     V     0.2793   0.2094   0.4499
V46     V     0.2793   0.2094   0.5501
V47     V     0.5501   0.2094   0.2793
V48     V     0.4499   0.2094   0.2793
V49     V     0.7207   0.2094   0.5501
V50     V     0.7207   0.2094   0.4499
V51     V     0.4499   0.2094   0.7207
V52     V     0.5501   0.2094   0.7207
Ti53     Ti     0.5707   0.1214   0.5
Ti54     Ti     0.5   0.1214   0.5707
Ti55     Ti     0.5   0.1214   0.4293
Ti56     Ti     0.4293   0.1214   0.5
Er57     Er     0.5   0.1403   0.3312
Er58     Er     0.3312   0.1403   0.5
Er59     Er     0.5   0.1403   0.6688
Er60     Er     0.6688   0.1403   0.5
V61     V     0.7906   0.2793   0.4499
V62     V     0.7906   0.2793   0.5501
V63     V     0.7906   0.5501   0.2793
V64     V     0.7906   0.4499   0.2793
V65     V     0.7906   0.7207   0.5501
V66     V     0.7906   0.7207   0.4499
V67     V     0.7906   0.4499   0.7207
V68     V     0.7906   0.5501   0.7207
Ti69     Ti     0.8786   0.5707   0.5
Ti70     Ti     0.8786   0.5   0.5707
Ti71     Ti     0.8786   0.5   0.4293
Ti72     Ti     0.8786   0.4293   0.5
Er73     Er     0.8597   0.5   0.3312
Er74     Er     0.8597   0.3312   0.5
Er75     Er     0.8597   0.5   0.6688
Er76     Er     0.8597   0.6688   0.5
V77     V     0.2793   0.5501   0.2094
V78     V     0.2793   0.4499   0.2094
V79     V     0.4499   0.2793   0.2094
V80     V     0.5501   0.2793   0.2094
V81     V     0.5501   0.7207   0.2094
V82     V     0.4499   0.7207   0.2094
V83     V     0.7207   0.4499   0.2094
V84     V     0.7207   0.5501   0.2094
Ti85     Ti     0.5   0.4293   0.1214
Ti86     Ti     0.4293   0.5   0.1214
Ti87     Ti     0.5   0.5707   0.1214
Ti88     Ti     0.5707   0.5   0.1214
Er89     Er     0.5   0.3312   0.1403
Er90     Er     0.3312   0.5   0.1403
Er91     Er     0.6688   0.5   0.1403
Er92     Er     0.5   0.6688   0.1403
V93     V     0.5501   0.2793   0.7906
V94     V     0.4499   0.2793   0.7906
V95     V     0.2793   0.4499   0.7906
V96     V     0.2793   0.5501   0.7906
V97     V     0.7207   0.5501   0.7906
V98     V     0.7207   0.4499   0.7906
V99     V     0.4499   0.7207   0.7906
V100     V     0.5501   0.7207   0.7906
Ti101     Ti     0.5707   0.5   0.8786
Ti102     Ti     0.5   0.5707   0.8786
Ti103     Ti     0.4293   0.5   0.8786
Ti104     Ti     0.5   0.4293   0.8786
Er105     Er     0.3312   0.5   0.8597
Er106     Er     0.5   0.3312   0.8597
Er107     Er     0.5   0.6688   0.8597
Er108     Er     0.6688   0.5   0.8597
Ce109     Ce     0.2919   0.2211   0.8497
Ce110     Ce     0.2211   0.2919   0.8497
Ce111     Ce     0.1503   0.2919   0.7789
Ce112     Ce     0.1503   0.2211   0.7081
Ce113     Ce     0.2081   0.3497   0.7211
Ce114     Ce     0.2789   0.3497   0.7919
Ce115     Ce     0.2789   0.2081   0.6503
Ce116     Ce     0.2081   0.2789   0.6503
Ce117     Ce     0.2919   0.1503   0.7789
Ce118     Ce     0.2211   0.1503   0.7081
Ce119     Ce     0.3497   0.2081   0.7211
Ce120     Ce     0.3497   0.2789   0.7919
Ce121     Ce     0.8497   0.2919   0.2211
Ce122     Ce     0.8497   0.2211   0.2919
Ce123     Ce     0.7211   0.2081   0.3497
Ce124     Ce     0.7919   0.2789   0.3497
Ce125     Ce     0.7789   0.1503   0.2919
Ce126     Ce     0.7081   0.1503   0.2211
Ce127     Ce     0.6503   0.2789   0.2081
Ce128     Ce     0.6503   0.2081   0.2789
Ce129     Ce     0.7789   0.2919   0.1503
Ce130     Ce     0.7081   0.2211   0.1503
Ce131     Ce     0.7211   0.3497   0.2081
Ce132     Ce     0.7919   0.3497   0.2789
Ce133     Ce     0.7081   0.7789   0.8497
Ce134     Ce     0.7789   0.7081   0.8497
Ce135     Ce     0.6503   0.7919   0.7211
Ce136     Ce     0.6503   0.7211   0.7919
Ce137     Ce     0.7919   0.6503   0.7211
Ce138     Ce     0.7211   0.6503   0.7919
Ce139     Ce     0.8497   0.7789   0.7081
Ce140     Ce     0.8497   0.7081   0.7789
Ce141     Ce     0.7211   0.7919   0.6503
Ce142     Ce     0.7919   0.7211   0.6503
Ce143     Ce     0.7789   0.8497   0.7081
Ce144     Ce     0.7081   0.8497   0.7789
V145     V     0.2207   0.2906   0.0501
V146     V     0.2207   0.2906   0.9499
V147     V     0.0501   0.2906   0.2207
V148     V     0.9499   0.2906   0.2207
V149     V     0.0501   0.2906   0.7793
V150     V     0.9499   0.2906   0.7793
V151     V     0.7793   0.2906   0.0501
V152     V     0.7793   0.2906   0.9499
Er153     Er     0.1688   0.3597   0.0
Ti154     Ti     0.0   0.3786   0.0707
Ti155     Ti     0.0707   0.3786   0.0
Ti156     Ti     0.0   0.3786   0.9293
Ti157     Ti     0.9293   0.3786   0.0
Er158     Er     0.0   0.3597   0.1688
Er159     Er     0.8312   0.3597   0.0
Er160     Er     0.0   0.3597   0.8312
Ce161     Ce     0.6503   0.2081   0.7211
Ce162     Ce     0.6503   0.2789   0.7919
Ce163     Ce     0.7789   0.1503   0.7081
Ce164     Ce     0.7081   0.1503   0.7789
Ce165     Ce     0.7211   0.2081   0.6503
Ce166     Ce     0.7919   0.2789   0.6503
Ce167     Ce     0.7789   0.2919   0.8497
Ce168     Ce     0.7081   0.2211   0.8497
Ce169     Ce     0.8497   0.2919   0.7789
Ce170     Ce     0.8497   0.2211   0.7081
Ce171     Ce     0.7919   0.3497   0.7211
Ce172     Ce     0.7211   0.3497   0.7919
V173     V     0.0501   0.2207   0.7094
V174     V     0.9499   0.2207   0.7094
V175     V     0.2207   0.0501   0.7094
V176     V     0.2207   0.9499   0.7094
V177     V     0.0501   0.7793   0.7094
V178     V     0.9499   0.7793   0.7094
V179     V     0.7793   0.0501   0.7094
V180     V     0.7793   0.9499   0.7094
Ti181     Ti     0.0707   0.0   0.6214
Ti182     Ti     0.0   0.0707   0.6214
Ti183     Ti     0.9293   0.0   0.6214
Ti184     Ti     0.0   0.9293   0.6214
Er185     Er     0.1688   0.0   0.6403
Er186     Er     0.0   0.1688   0.6403
Er187     Er     0.0   0.8312   0.6403
Er188     Er     0.8312   0.0   0.6403
Ce189     Ce     0.2081   0.7211   0.6503
Ce190     Ce     0.2789   0.7919   0.6503
Ce191     Ce     0.1503   0.7081   0.7789
Ce192     Ce     0.1503   0.7789   0.7081
Ce193     Ce     0.2081   0.6503   0.7211
Ce194     Ce     0.2789   0.6503   0.7919
Ce195     Ce     0.2919   0.7789   0.8497
Ce196     Ce     0.2211   0.7081   0.8497
Ce197     Ce     0.2919   0.8497   0.7789
Ce198     Ce     0.2211   0.8497   0.7081
Ce199     Ce     0.3497   0.7919   0.7211
Ce200     Ce     0.3497   0.7211   0.7919
V201     V     0.2906   0.2207   0.0501
V202     V     0.2906   0.2207   0.9499
V203     V     0.2906   0.0501   0.2207
V204     V     0.2906   0.9499   0.2207
V205     V     0.2906   0.7793   0.0501
V206     V     0.2906   0.7793   0.9499
V207     V     0.2906   0.0501   0.7793
V208     V     0.2906   0.9499   0.7793
Er209     Er     0.3597   0.1688   0.0
Ti210     Ti     0.3786   0.0   0.0707
Ti211     Ti     0.3786   0.0707   0.0
Ti212     Ti     0.3786   0.9293   0.0
Ti213     Ti     0.3786   0.0   0.9293
Er214     Er     0.3597   0.0   0.1688
Er215     Er     0.3597   0.0   0.8312
Er216     Er     0.3597   0.8312   0.0
Ce217     Ce     0.2211   0.8497   0.2919
Ce218     Ce     0.2919   0.8497   0.2211
Ce219     Ce     0.3497   0.7211   0.2081
Ce220     Ce     0.3497   0.7919   0.2789
Ce221     Ce     0.2919   0.7789   0.1503
Ce222     Ce     0.2211   0.7081   0.1503
Ce223     Ce     0.2081   0.6503   0.2789
Ce224     Ce     0.2789   0.6503   0.2081
Ce225     Ce     0.1503   0.7789   0.2919
Ce226     Ce     0.1503   0.7081   0.2211
Ce227     Ce     0.2081   0.7211   0.3497
Ce228     Ce     0.2789   0.7919   0.3497
V229     V     0.0501   0.7094   0.2207
V230     V     0.9499   0.7094   0.2207
V231     V     0.2207   0.7094   0.0501
V232     V     0.2207   0.7094   0.9499
V233     V     0.7793   0.7094   0.0501
V234     V     0.7793   0.7094   0.9499
V235     V     0.0501   0.7094   0.7793
V236     V     0.9499   0.7094   0.7793
Ti237     Ti     0.0   0.6214   0.0707
Ti238     Ti     0.0707   0.6214   0.0
Ti239     Ti     0.9293   0.6214   0.0
Ti240     Ti     0.0   0.6214   0.9293
Er241     Er     0.0   0.6403   0.1688
Er242     Er     0.1688   0.6403   0.0
Er243     Er     0.0   0.6403   0.8312
Er244     Er     0.8312   0.6403   0.0
V245     V     0.7094   0.0501   0.2207
V246     V     0.7094   0.9499   0.2207
V247     V     0.7094   0.2207   0.0501
V248     V     0.7094   0.2207   0.9499
V249     V     0.7094   0.0501   0.7793
V250     V     0.7094   0.9499   0.7793
V251     V     0.7094   0.7793   0.0501
V252     V     0.7094   0.7793   0.9499
Ti253     Ti     0.6214   0.0   0.0707
Ti254     Ti     0.6214   0.0707   0.0
Ti255     Ti     0.6214   0.0   0.9293
Ti256     Ti     0.6214   0.9293   0.0
Er257     Er     0.6403   0.0   0.1688
Er258     Er     0.6403   0.1688   0.0
Er259     Er     0.6403   0.0   0.8312
Er260     Er     0.6403   0.8312   0.0
V261     V     0.2207   0.0501   0.2906
V262     V     0.2207   0.9499   0.2906
V263     V     0.0501   0.2207   0.2906
V264     V     0.9499   0.2207   0.2906
V265     V     0.7793   0.0501   0.2906
V266     V     0.7793   0.9499   0.2906
V267     V     0.0501   0.7793   0.2906
V268     V     0.9499   0.7793   0.2906
Er269     Er     0.1688   0.0   0.3597
Ti270     Ti     0.0   0.0707   0.3786
Ti271     Ti     0.0707   0.0   0.3786
Ti272     Ti     0.0   0.9293   0.3786
Ti273     Ti     0.9293   0.0   0.3786
Er274     Er     0.0   0.1688   0.3597
Er275     Er     0.8312   0.0   0.3597
Er276     Er     0.0   0.8312   0.3597
Ce277     Ce     0.7211   0.6503   0.2081
Ce278     Ce     0.7919   0.6503   0.2789
Ce279     Ce     0.7081   0.7789   0.1503
Ce280     Ce     0.7789   0.7081   0.1503
Ce281     Ce     0.6503   0.7211   0.2081
Ce282     Ce     0.6503   0.7919   0.2789
Ce283     Ce     0.7789   0.8497   0.2919
Ce284     Ce     0.7081   0.8497   0.2211
Ce285     Ce     0.8497   0.7789   0.2919
Ce286     Ce     0.8497   0.7081   0.2211
Ce287     Ce     0.7919   0.7211   0.3497
Ce288     Ce     0.7211   0.7919   0.3497
loop_
_geom_bond_atom_site_label_1
_geom_bond_atom_site_label_2
_geom_bond_distance
_geom_bond_site_symmetry_2
_ccdc_geom_bond_type
Ce1     Ce2    9.998   .     S
Ce1     Ce4    10.002   .     S
Ce1     V145    10.013   .     S
Ce1     Ce10    10.012   .     S
Ce2     Ce6    10.002   .     S
Ce2     V201    10.013   .     S
Ce2     Ce8    10.012   .     S
Ce3     Ce4    9.998   .     S
Ce3     Ce10    10.002   .     S
Ce3     V15    10.013   .     S
Ce3     Ce11    10.012   .     S
Ce4     V78    10.013   .     S
Ce4     Ce6    10.012   .     S
Ce5     Ce6    9.998   .     S
Ce5     Ce8    10.002   .     S
Ce5     V48    10.013   .     S
Ce5     Ce12    10.012   .     S
Ce6     V79    10.013   .     S
Ce7     Ce8    9.998   .     S
Ce7     Ce12    10.002   .     S
Ce7     V261    10.013   .     S
Ce7     Ce9    10.012   .     S
Ce8     V203    10.013   .     S
Ce9     Ce10    9.998   .     S
Ce9     Ce11    10.002   .     S
Ce9     V263    10.013   .     S
Ce10     V147    10.013   .     S
Ce11     Ce12    9.998   .     S
Ce11     V14    10.013   .     S
Ce12     V45    10.013   .     S
V13     Er26    9.987   .     S
V13     V14    10.013   .     S
V13     Ce116    10.013   .     S
V14     Er26    9.987   .     S
V15     Er25    9.987   .     S
V15     V16    10.013   .     S
V16     Er25    9.987   .     S
V16     Ce223    10.013   .     S
V17     Er28    9.987   .     S
V17     V18    10.013   .     S
V17     Ce227    10.013   .     S
V18     Er28    9.987   .     S
V18     Ce189    10.013   .     S
V19     Er27    9.987   .     S
V19     V20    10.013   .     S
V19     Ce193    10.013   .     S
V20     Er27    9.987   .     S
V20     Ce113    10.013   .     S
Ti21     Ti22    9.987   .     S
Ti21     Ti23    9.987   .     S
Ti21     Er25    9.988   .     S
Ti22     Ti24    9.987   .     S
Ti22     Er26    9.988   .     S
Ti23     Ti24    9.987   .     S
Ti23     Er28    9.988   .     S
Ti24     Er27    9.988   .     S
V29     Er42    9.987   .     S
V29     V30    10.013   .     S
V29     Ce190    10.013   .     S
V30     Er42    9.987   .     S
V30     Ce228    10.013   .     S
V31     Er41    9.987   .     S
V31     V32    10.013   .     S
V31     Ce220    10.013   .     S
V32     Er41    9.987   .     S
V32     Ce282    10.013   .     S
V33     Er44    9.987   .     S
V33     V34    10.013   .     S
V33     Ce288    10.013   .     S
V34     Er44    9.987   .     S
V34     Ce141    10.013   .     S
V35     Er43    9.987   .     S
V35     V36    10.013   .     S
V35     Ce135    10.013   .     S
V36     Er43    9.987   .     S
V36     Ce199    10.013   .     S
Ti37     Ti38    9.987   .     S
Ti37     Ti39    9.987   .     S
Ti37     Er41    9.988   .     S
Ti38     Ti40    9.987   .     S
Ti38     Er42    9.988   .     S
Ti39     Ti40    9.987   .     S
Ti39     Er44    9.988   .     S
Ti40     Er43    9.988   .     S
V45     Er58    9.987   .     S
V45     V46    10.013   .     S
V46     Er58    9.987   .     S
V46     Ce115    10.013   .     S
V47     Er57    9.987   .     S
V47     V48    10.013   .     S
V47     Ce128    10.013   .     S
V48     Er57    9.987   .     S
V49     Er60    9.987   .     S
V49     V50    10.013   .     S
V49     Ce165    10.013   .     S
V50     Er60    9.987   .     S
V50     Ce123    10.013   .     S
V51     Er59    9.987   .     S
V51     V52    10.013   .     S
V51     Ce119    10.013   .     S
V52     Er59    9.987   .     S
V52     Ce161    10.013   .     S
Ti53     Ti55    9.987   .     S
Ti53     Ti54    9.987   .     S
Ti53     Er60    9.988   .     S
Ti54     Ti56    9.987   .     S
Ti54     Er59    9.988   .     S
Ti55     Ti56    9.987   .     S
Ti55     Er57    9.988   .     S
Ti56     Er58    9.988   .     S
V61     Er74    9.987   .     S
V61     V62    10.013   .     S
V61     Ce124    10.013   .     S
V62     Er74    9.987   .     S
V62     Ce166    10.013   .     S
V63     Er73    9.987   .     S
V63     V64    10.013   .     S
V63     Ce278    10.013   .     S
V64     Er73    9.987   .     S
V64     Ce132    10.013   .     S
V65     Er76    9.987   .     S
V65     V66    10.013   .     S
V65     Ce142    10.013   .     S
V66     Er76    9.987   .     S
V66     Ce287    10.013   .     S
V67     Er75    9.987   .     S
V67     V68    10.013   .     S
V67     Ce171    10.013   .     S
V68     Er75    9.987   .     S
V68     Ce137    10.013   .     S
Ti69     Ti71    9.987   .     S
Ti69     Ti70    9.987   .     S
Ti69     Er76    9.988   .     S
Ti70     Ti72    9.987   .     S
Ti70     Er75    9.988   .     S
Ti71     Ti72    9.987   .     S
Ti71     Er73    9.988   .     S
Ti72     Er74    9.988   .     S
V77     Er90    9.987   .     S
V77     V78    10.013   .     S
V77     Ce224    10.013   .     S
V78     Er90    9.987   .     S
V79     Er89    9.987   .     S
V79     V80    10.013   .     S
V80     Er89    9.987   .     S
V80     Ce127    10.013   .     S
V81     Er92    9.987   .     S
V81     V82    10.013   .     S
V81     Ce281    10.013   .     S
V82     Er92    9.987   .     S
V82     Ce219    10.013   .     S
V83     Er91    9.987   .     S
V83     V84    10.013   .     S
V83     Ce131    10.013   .     S
V84     Er91    9.987   .     S
V84     Ce277    10.013   .     S
Ti85     Ti86    9.987   .     S
Ti85     Ti88    9.987   .     S
Ti85     Er89    9.988   .     S
Ti86     Ti87    9.987   .     S
Ti86     Er90    9.988   .     S
Ti87     Ti88    9.987   .     S
Ti87     Er92    9.988   .     S
Ti88     Er91    9.988   .     S
V93     Er106    9.987   .     S
V93     V94    10.013   .     S
V93     Ce162    10.013   .     S
V94     Er106    9.987   .     S
V94     Ce120    10.013   .     S
V95     Er105    9.987   .     S
V95     V96    10.013   .     S
V95     Ce114    10.013   .     S
V96     Er105    9.987   .     S
V96     Ce194    10.013   .     S
V97     Er108    9.987   .     S
V97     V98    10.013   .     S
V97     Ce138    10.013   .     S
V98     Er108    9.987   .     S
V98     Ce172    10.013   .     S
V99     Er107    9.987   .     S
V99     V100    10.013   .     S
V99     Ce200    10.013   .     S
V100     Er107    9.987   .     S
V100     Ce136    10.013   .     S
Ti101     Ti104    9.987   .     S
Ti101     Ti102    9.987   .     S
Ti101     Er108    9.988   .     S
Ti102     Ti103    9.987   .     S
Ti102     Er107    9.988   .     S
Ti103     Ti104    9.987   .     S
Ti103     Er105    9.988   .     S
Ti104     Er106    9.988   .     S
Ce109     Ce110    9.998   .     S
Ce109     Ce120    10.002   .     S
Ce109     V202    10.013   .     S
Ce109     Ce117    10.012   .     S
Ce110     Ce114    10.002   .     S
Ce110     V146    10.013   .     S
Ce110     Ce111    10.012   .     S
Ce111     Ce112    9.998   .     S
Ce111     Ce113    10.002   .     S
Ce111     V149    10.013   .     S
Ce112     Ce116    10.002   .     S
Ce112     V173    10.013   .     S
Ce112     Ce118    10.012   .     S
Ce113     Ce114    9.998   .     S
Ce113     Ce116    10.012   .     S
Ce114     Ce120    10.012   .     S
Ce115     Ce116    9.998   .     S
Ce115     Ce118    10.002   .     S
Ce115     Ce119    10.012   .     S
Ce117     Ce118    9.998   .     S
Ce117     Ce119    10.002   .     S
Ce117     V207    10.013   .     S
Ce118     V175    10.013   .     S
Ce119     Ce120    9.998   .     S
Ce121     Ce122    9.998   .     S
Ce121     Ce132    10.002   .     S
Ce121     V148    10.013   .     S
Ce121     Ce129    10.012   .     S
Ce122     Ce124    10.002   .     S
Ce122     V264    10.013   .     S
Ce122     Ce125    10.012   .     S
Ce123     Ce124    9.998   .     S
Ce123     Ce125    10.002   .     S
Ce123     Ce128    10.012   .     S
Ce124     Ce132    10.012   .     S
Ce125     Ce126    9.998   .     S
Ce125     V265    10.013   .     S
Ce126     Ce128    10.002   .     S
Ce126     V245    10.013   .     S
Ce126     Ce130    10.012   .     S
Ce127     Ce128    9.998   .     S
Ce127     Ce130    10.002   .     S
Ce127     Ce131    10.012   .     S
Ce129     Ce130    9.998   .     S
Ce129     Ce131    10.002   .     S
Ce129     V151    10.013   .     S
Ce130     V247    10.013   .     S
Ce131     Ce132    9.998   .     S
Ce133     Ce134    9.998   .     S
Ce133     Ce136    10.002   .     S
Ce133     V252    10.013   .     S
Ce133     Ce144    10.012   .     S
Ce134     Ce138    10.002   .     S
Ce134     V234    10.013   .     S
Ce134     Ce140    10.012   .     S
Ce135     Ce136    9.998   .     S
Ce135     Ce144    10.002   .     S
Ce135     Ce141    10.012   .     S
Ce136     Ce138    10.012   .     S
Ce137     Ce138    9.998   .     S
Ce137     Ce140    10.002   .     S
Ce137     Ce142    10.012   .     S
Ce139     Ce140    9.998   .     S
Ce139     Ce142    10.002   .     S
Ce139     V178    10.013   .     S
Ce139     Ce143    10.012   .     S
Ce140     V236    10.013   .     S
Ce141     Ce142    9.998   .     S
Ce141     Ce143    10.002   .     S
Ce143     Ce144    9.998   .     S
Ce143     V180    10.013   .     S
Ce144     V250    10.013   .     S
V145     Er153    9.987   .     S
V145     V146    10.013   1_554     S
V146     Er153    9.987   1_556     S
V146     V145    10.013   1_556     S
V147     Er158    9.987   .     S
V147     V148    10.013   1_455     S
V148     Er158    9.987   1_655     S
V148     V147    10.013   1_655     S
V149     Er160    9.987   .     S
V149     V150    10.013   1_455     S
V150     Er160    9.987   1_655     S
V150     V149    10.013   1_655     S
V150     Ce169    10.013   .     S
V151     Er159    9.987   .     S
V151     V152    10.013   1_554     S
V152     Er159    9.987   1_556     S
V152     V151    10.013   1_556     S
V152     Ce167    10.013   .     S
Er153     V146    9.987   1_554     S
Er153     Ti155    9.988   .     S
Ti154     Ti155    9.987   .     S
Ti154     Ti157    9.987   1_455     S
Ti154     Er158    9.988   .     S
Ti155     Ti156    9.987   1_554     S
Ti156     Ti155    9.987   1_556     S
Ti156     Ti157    9.987   1_456     S
Ti156     Er160    9.988   .     S
Ti157     Ti154    9.987   1_655     S
Ti157     Ti156    9.987   1_654     S
Ti157     Er159    9.988   .     S
Er158     V148    9.987   1_455     S
Er159     V152    9.987   1_554     S
Er160     V150    9.987   1_455     S
Ce161     Ce162    9.998   .     S
Ce161     Ce164    10.002   .     S
Ce161     Ce165    10.012   .     S
Ce162     Ce168    10.002   .     S
Ce162     Ce172    10.012   .     S
Ce163     Ce164    9.998   .     S
Ce163     Ce165    10.002   .     S
Ce163     V179    10.013   .     S
Ce163     Ce170    10.012   .     S
Ce164     V249    10.013   .     S
Ce164     Ce168    10.012   .     S
Ce165     Ce166    9.998   .     S
Ce166     Ce170    10.002   .     S
Ce166     Ce171    10.012   .     S
Ce167     Ce168    9.998   .     S
Ce167     Ce172    10.002   .     S
Ce167     Ce169    10.012   .     S
Ce168     V248    10.013   .     S
Ce169     Ce170    9.998   .     S
Ce169     Ce171    10.002   .     S
Ce170     V174    10.013   .     S
Ce171     Ce172    9.998   .     S
V173     Er186    9.987   .     S
V173     V174    10.013   1_455     S
V174     Er186    9.987   1_655     S
V174     V173    10.013   1_655     S
V175     Er185    9.987   .     S
V175     V176    10.013   1_545     S
V176     Er185    9.987   1_565     S
V176     V175    10.013   1_565     S
V176     Ce198    10.013   .     S
V177     Er187    9.987   .     S
V177     V178    10.013   1_455     S
V177     Ce192    10.013   .     S
V178     Er187    9.987   1_655     S
V178     V177    10.013   1_655     S
V179     Er188    9.987   .     S
V179     V180    10.013   1_545     S
V180     Er188    9.987   1_565     S
V180     V179    10.013   1_565     S
Ti181     Ti182    9.987   .     S
Ti181     Ti184    9.987   1_545     S
Ti181     Er185    9.988   .     S
Ti182     Ti183    9.987   1_455     S
Ti182     Er186    9.988   .     S
Ti183     Ti182    9.987   1_655     S
Ti183     Ti184    9.987   1_645     S
Ti183     Er188    9.988   .     S
Ti184     Ti181    9.987   1_565     S
Ti184     Ti183    9.987   1_465     S
Ti184     Er187    9.988   .     S
Er185     V176    9.987   1_545     S
Er186     V174    9.987   1_455     S
Er187     V178    9.987   1_455     S
Er188     V180    9.987   1_545     S
Ce189     Ce190    9.998   .     S
Ce189     Ce192    10.002   .     S
Ce189     Ce193    10.012   .     S
Ce190     Ce198    10.002   .     S
Ce190     Ce199    10.012   .     S
Ce191     Ce192    9.998   .     S
Ce191     Ce193    10.002   .     S
Ce191     V235    10.013   .     S
Ce191     Ce196    10.012   .     S
Ce192     Ce198    10.012   .     S
Ce193     Ce194    9.998   .     S
Ce194     Ce196    10.002   .     S
Ce194     Ce200    10.012   .     S
Ce195     Ce196    9.998   .     S
Ce195     Ce200    10.002   .     S
Ce195     V206    10.013   .     S
Ce195     Ce197    10.012   .     S
Ce196     V232    10.013   .     S
Ce197     Ce198    9.998   .     S
Ce197     Ce199    10.002   .     S
Ce197     V208    10.013   .     S
Ce199     Ce200    9.998   .     S
V201     Er209    9.987   .     S
V201     V202    10.013   1_554     S
V202     Er209    9.987   1_556     S
V202     V201    10.013   1_556     S
V203     Er214    9.987   .     S
V203     V204    10.013   1_545     S
V204     Er214    9.987   1_565     S
V204     V203    10.013   1_565     S
V204     Ce218    10.013   .     S
V205     Er216    9.987   .     S
V205     V206    10.013   1_554     S
V205     Ce221    10.013   .     S
V206     Er216    9.987   1_556     S
V206     V205    10.013   1_556     S
V207     Er215    9.987   .     S
V207     V208    10.013   1_545     S
V208     Er215    9.987   1_565     S
V208     V207    10.013   1_565     S
Er209     V202    9.987   1_554     S
Er209     Ti211    9.988   .     S
Ti210     Ti211    9.987   .     S
Ti210     Ti212    9.987   1_545     S
Ti210     Er214    9.988   .     S
Ti211     Ti213    9.987   1_554     S
Ti212     Ti210    9.987   1_565     S
Ti212     Ti213    9.987   1_564     S
Ti212     Er216    9.988   .     S
Ti213     Ti211    9.987   1_556     S
Ti213     Ti212    9.987   1_546     S
Ti213     Er215    9.988   .     S
Er214     V204    9.987   1_545     S
Er215     V208    9.987   1_545     S
Er216     V206    9.987   1_554     S
Ce217     Ce218    9.998   .     S
Ce217     Ce228    10.002   .     S
Ce217     V262    10.013   .     S
Ce217     Ce225    10.012   .     S
Ce218     Ce220    10.002   .     S
Ce218     Ce221    10.012   .     S
Ce219     Ce220    9.998   .     S
Ce219     Ce221    10.002   .     S
Ce219     Ce224    10.012   .     S
Ce220     Ce228    10.012   .     S
Ce221     Ce222    9.998   .     S
Ce222     Ce224    10.002   .     S
Ce222     V231    10.013   .     S
Ce222     Ce226    10.012   .     S
Ce223     Ce224    9.998   .     S
Ce223     Ce226    10.002   .     S
Ce223     Ce227    10.012   .     S
Ce225     Ce226    9.998   .     S
Ce225     Ce227    10.002   .     S
Ce225     V267    10.013   .     S
Ce226     V229    10.013   .     S
Ce227     Ce228    9.998   .     S
V229     Er241    9.987   .     S
V229     V230    10.013   1_455     S
V230     Er241    9.987   1_655     S
V230     V229    10.013   1_655     S
V230     Ce286    10.013   .     S
V231     Er242    9.987   .     S
V231     V232    10.013   1_554     S
V232     Er242    9.987   1_556     S
V232     V231    10.013   1_556     S
V233     Er244    9.987   .     S
V233     V234    10.013   1_554     S
V233     Ce280    10.013   .     S
V234     Er244    9.987   1_556     S
V234     V233    10.013   1_556     S
V235     Er243    9.987   .     S
V235     V236    10.013   1_455     S
V236     Er243    9.987   1_655     S
V236     V235    10.013   1_655     S
Ti237     Ti238    9.987   .     S
Ti237     Ti239    9.987   1_455     S
Ti237     Er241    9.988   .     S
Ti238     Ti240    9.987   1_554     S
Ti238     Er242    9.988   .     S
Ti239     Ti237    9.987   1_655     S
Ti239     Ti240    9.987   1_654     S
Ti239     Er244    9.988   .     S
Ti240     Ti238    9.987   1_556     S
Ti240     Ti239    9.987   1_456     S
Ti240     Er243    9.988   .     S
Er241     V230    9.987   1_455     S
Er242     V232    9.987   1_554     S
Er243     V236    9.987   1_455     S
Er244     V234    9.987   1_554     S
V245     Er257    9.987   .     S
V245     V246    10.013   1_545     S
V246     Er257    9.987   1_565     S
V246     V245    10.013   1_565     S
V246     Ce284    10.013   .     S
V247     Er258    9.987   .     S
V247     V248    10.013   1_554     S
V248     Er258    9.987   1_556     S
V248     V247    10.013   1_556     S
V249     Er259    9.987   .     S
V249     V250    10.013   1_545     S
V250     Er259    9.987   1_565     S
V250     V249    10.013   1_565     S
V251     Er260    9.987   .     S
V251     V252    10.013   1_554     S
V251     Ce279    10.013   .     S
V252     Er260    9.987   1_556     S
V252     V251    10.013   1_556     S
Ti253     Ti254    9.987   .     S
Ti253     Ti256    9.987   1_545     S
Ti253     Er257    9.988   .     S
Ti254     Ti255    9.987   1_554     S
Ti254     Er258    9.988   .     S
Ti255     Ti254    9.987   1_556     S
Ti255     Ti256    9.987   1_546     S
Ti255     Er259    9.988   .     S
Ti256     Ti253    9.987   1_565     S
Ti256     Ti255    9.987   1_564     S
Ti256     Er260    9.988   .     S
Er257     V246    9.987   1_545     S
Er258     V248    9.987   1_554     S
Er259     V250    9.987   1_545     S
Er260     V252    9.987   1_554     S
V261     Er269    9.987   .     S
V261     V262    10.013   1_545     S
V262     Er269    9.987   1_565     S
V262     V261    10.013   1_565     S
V263     Er274    9.987   .     S
V263     V264    10.013   1_455     S
V264     Er274    9.987   1_655     S
V264     V263    10.013   1_655     S
V265     Er275    9.987   .     S
V265     V266    10.013   1_545     S
V266     Er275    9.987   1_565     S
V266     V265    10.013   1_565     S
V266     Ce283    10.013   .     S
V267     Er276    9.987   .     S
V267     V268    10.013   1_455     S
V268     Er276    9.987   1_655     S
V268     V267    10.013   1_655     S
V268     Ce285    10.013   .     S
Er269     V262    9.987   1_545     S
Er269     Ti271    9.988   .     S
Ti270     Ti271    9.987   .     S
Ti270     Ti273    9.987   1_455     S
Ti270     Er274    9.988   .     S
Ti271     Ti272    9.987   1_545     S
Ti272     Ti271    9.987   1_565     S
Ti272     Ti273    9.987   1_465     S
Ti272     Er276    9.988   .     S
Ti273     Ti270    9.987   1_655     S
Ti273     Ti272    9.987   1_645     S
Ti273     Er275    9.988   .     S
Er274     V264    9.987   1_455     S
Er275     V266    9.987   1_545     S
Er276     V268    9.987   1_455     S
Ce277     Ce278    9.998   .     S
Ce277     Ce280    10.002   .     S
Ce277     Ce281    10.012   .     S
Ce278     Ce286    10.002   .     S
Ce278     Ce287    10.012   .     S
Ce279     Ce280    9.998   .     S
Ce279     Ce281    10.002   .     S
Ce279     Ce284    10.012   .     S
Ce280     Ce286    10.012   .     S
Ce281     Ce282    9.998   .     S
Ce282     Ce284    10.002   .     S
Ce282     Ce288    10.012   .     S
Ce283     Ce284    9.998   .     S
Ce283     Ce288    10.002   .     S
Ce283     Ce285    10.012   .     S
Ce285     Ce286    9.998   .     S
Ce285     Ce287    10.002   .     S
Ce287     Ce288    9.998   .     S
