data_kgk
_audit_creation_date              2020-02-02
_audit_creation_method            'Pymatgen'
_symmetry_space_group_name_H-M    'P1'
_symmetry_Int_Tables_number       1
loop_
_symmetry_equiv_pos_as_xyz
  x,y,z
_cell_length_a                    118.0489
_cell_length_b                    118.0489
_cell_length_c                    118.0489
_cell_angle_alpha                 90.0
_cell_angle_beta                 90.0
_cell_angle_gamma                 90.0
loop_
_atom_site_label
_atom_site_type_symbol
_atom_site_fract_x
_atom_site_fract_y
_atom_site_fract_z
Er1     Er     0.4187   0.0813   0.9187
Er2     Er     0.0813   0.4187   0.0813
Er3     Er     0.9187   0.4187   0.0813
Er4     Er     0.4187   0.0813   0.0813
Er5     Er     0.0813   0.9187   0.4187
Er6     Er     0.0813   0.0813   0.4187
H7     H     0.4752   0.1439   0.5954
S8     S     0.4622   0.218   0.5565
Ti9     Ti     0.2861   0.438   0.4877
V10     V     0.3613   0.4147   0.5191
Ti11     Ti     0.438   0.2861   0.5123
V12     V     0.4147   0.3613   0.4809
H13     H     0.1439   0.4752   0.4046
S14     S     0.218   0.4622   0.4435
S15     S     0.0565   0.5378   0.282
H16     H     0.0954   0.5248   0.3561
Ti17     Ti     0.9877   0.7139   0.062
V18     V     0.0191   0.6387   0.0853
Ti19     Ti     0.0123   0.5621   0.2139
V20     V     0.9809   0.5853   0.1387
H21     H     0.9046   0.8561   0.0248
S22     S     0.9435   0.782   0.0378
H23     H     0.5248   0.0954   0.6439
S24     S     0.5378   0.0565   0.718
Ti25     Ti     0.7139   0.9877   0.938
V26     V     0.6387   0.0191   0.9147
V27     V     0.5853   0.9809   0.8613
Ti28     Ti     0.5621   0.0123   0.7861
H29     H     0.8561   0.9046   0.9752
S30     S     0.782   0.9435   0.9622
H31     H     0.5954   0.4752   0.1439
S32     S     0.5565   0.4622   0.218
Ti33     Ti     0.4877   0.2861   0.438
V34     V     0.5191   0.3613   0.4147
Ti35     Ti     0.5123   0.438   0.2861
V36     V     0.4809   0.4147   0.3613
H37     H     0.4046   0.1439   0.4752
S38     S     0.4435   0.218   0.4622
S39     S     0.282   0.0565   0.5378
H40     H     0.3561   0.0954   0.5248
Ti41     Ti     0.062   0.9877   0.7139
V42     V     0.0853   0.0191   0.6387
Ti43     Ti     0.2139   0.0123   0.5621
V44     V     0.1387   0.9809   0.5853
H45     H     0.0248   0.9046   0.8561
S46     S     0.0378   0.9435   0.782
H47     H     0.6439   0.5248   0.0954
S48     S     0.718   0.5378   0.0565
Ti49     Ti     0.938   0.7139   0.9877
V50     V     0.9147   0.6387   0.0191
V51     V     0.8613   0.5853   0.9809
Ti52     Ti     0.7861   0.5621   0.0123
H53     H     0.9752   0.8561   0.9046
S54     S     0.9622   0.782   0.9435
H55     H     0.1439   0.5954   0.4752
S56     S     0.218   0.5565   0.4622
Ti57     Ti     0.438   0.4877   0.2861
V58     V     0.4147   0.5191   0.3613
Ti59     Ti     0.2861   0.5123   0.438
V60     V     0.3613   0.4809   0.4147
H61     H     0.4752   0.4046   0.1439
S62     S     0.4622   0.4435   0.218
S63     S     0.5378   0.282   0.0565
H64     H     0.5248   0.3561   0.0954
Ti65     Ti     0.7139   0.062   0.9877
V66     V     0.6387   0.0853   0.0191
Ti67     Ti     0.5621   0.2139   0.0123
V68     V     0.5853   0.1387   0.9809
H69     H     0.8561   0.0248   0.9046
S70     S     0.782   0.0378   0.9435
H71     H     0.0954   0.6439   0.5248
S72     S     0.0565   0.718   0.5378
Ti73     Ti     0.9877   0.938   0.7139
V74     V     0.0191   0.9147   0.6387
V75     V     0.9809   0.8613   0.5853
Ti76     Ti     0.0123   0.7861   0.5621
H77     H     0.9046   0.9752   0.8561
S78     S     0.9435   0.9622   0.782
Ce79     Ce     0.9114   0.9114   0.9114
H80     H     0.0954   0.1439   0.0248
S81     S     0.0565   0.218   0.0378
V82     V     0.9809   0.3613   0.0853
Ti83     Ti     0.0123   0.2861   0.062
V84     V     0.0191   0.4147   0.1387
Ti85     Ti     0.9877   0.438   0.2139
S86     S     0.9435   0.4622   0.282
H87     H     0.9046   0.4752   0.3561
H88     H     0.1439   0.0954   0.9752
S89     S     0.218   0.0565   0.9622
V90     V     0.3613   0.9809   0.9147
Ti91     Ti     0.2861   0.0123   0.938
V92     V     0.4147   0.0191   0.8613
Ti93     Ti     0.438   0.9877   0.7861
H94     H     0.4752   0.9046   0.6439
S95     S     0.4622   0.9435   0.718
H96     H     0.5248   0.8561   0.5954
S97     S     0.5378   0.782   0.5565
Ti98     Ti     0.7139   0.5621   0.4877
V99     V     0.6387   0.5853   0.5191
Ti100     Ti     0.5621   0.7139   0.5123
V101     V     0.5853   0.6387   0.4809
S102     S     0.782   0.5378   0.4435
H103     H     0.8561   0.5248   0.4046
S104     S     0.282   0.5565   0.0378
H105     H     0.3561   0.5954   0.0248
Ti106     Ti     0.2139   0.5123   0.062
V107     V     0.1387   0.4809   0.0853
Ti108     Ti     0.062   0.4877   0.2139
V109     V     0.0853   0.5191   0.1387
S110     S     0.0378   0.4435   0.282
H111     H     0.0248   0.4046   0.3561
H112     H     0.6439   0.0248   0.5954
S113     S     0.718   0.0378   0.5565
V114     V     0.8613   0.0853   0.4809
Ti115     Ti     0.7861   0.062   0.5123
Ti116     Ti     0.938   0.2139   0.4877
V117     V     0.9147   0.1387   0.5191
S118     S     0.9622   0.282   0.4435
H119     H     0.9752   0.3561   0.4046
H120     H     0.5954   0.9752   0.6439
S121     S     0.5565   0.9622   0.718
V122     V     0.5191   0.8613   0.9147
Ti123     Ti     0.4877   0.7861   0.938
V124     V     0.4809   0.9147   0.8613
Ti125     Ti     0.5123   0.938   0.7861
S126     S     0.4435   0.718   0.9622
H127     H     0.4046   0.6439   0.9752
S128     S     0.282   0.4622   0.0565
H129     H     0.3561   0.4752   0.0954
V130     V     0.0853   0.3613   0.0191
Ti131     Ti     0.062   0.2861   0.9877
V132     V     0.1387   0.4147   0.9809
Ti133     Ti     0.2139   0.438   0.0123
H134     H     0.0248   0.1439   0.9046
S135     S     0.0378   0.218   0.9435
H136     H     0.5954   0.8561   0.4752
S137     S     0.5565   0.782   0.4622
Ti138     Ti     0.4877   0.5621   0.2861
V139     V     0.5191   0.5853   0.3613
Ti140     Ti     0.5123   0.7139   0.438
V141     V     0.4809   0.6387   0.4147
H142     H     0.4046   0.5248   0.1439
S143     S     0.4435   0.5378   0.218
H144     H     0.9752   0.0954   0.8561
S145     S     0.9622   0.0565   0.782
V146     V     0.8613   0.0191   0.5853
Ti147     Ti     0.7861   0.9877   0.5621
Ti148     Ti     0.938   0.0123   0.7139
V149     V     0.9147   0.9809   0.6387
H150     H     0.6439   0.9046   0.5248
S151     S     0.718   0.9435   0.5378
Ce152     Ce     0.5886   0.9114   0.5886
H153     H     0.8561   0.0954   0.0248
S154     S     0.782   0.0565   0.0378
Ti155     Ti     0.5621   0.9877   0.2139
V156     V     0.5853   0.0191   0.1387
Ti157     Ti     0.7139   0.0123   0.062
V158     V     0.6387   0.9809   0.0853
S159     S     0.5378   0.9435   0.282
H160     H     0.5248   0.9046   0.3561
H161     H     0.0954   0.4752   0.6439
S162     S     0.0565   0.4622   0.718
V163     V     0.0191   0.3613   0.9147
Ti164     Ti     0.9877   0.2861   0.938
V165     V     0.9809   0.4147   0.8613
Ti166     Ti     0.0123   0.438   0.7861
H167     H     0.9046   0.1439   0.9752
S168     S     0.9435   0.218   0.9622
H169     H     0.1439   0.5248   0.5954
S170     S     0.218   0.5378   0.5565
Ti171     Ti     0.2861   0.5621   0.5123
V172     V     0.3613   0.5853   0.4809
Ti173     Ti     0.438   0.7139   0.4877
V174     V     0.4147   0.6387   0.5191
S175     S     0.4622   0.782   0.4435
H176     H     0.4752   0.8561   0.4046
Ce177     Ce     0.5886   0.9114   0.4114
H178     H     0.1439   0.0248   0.0954
S179     S     0.218   0.0378   0.0565
V180     V     0.3613   0.0853   0.9809
Ti181     Ti     0.2861   0.062   0.0123
V182     V     0.4147   0.1387   0.0191
Ti183     Ti     0.438   0.2139   0.9877
S184     S     0.4622   0.282   0.9435
H185     H     0.4752   0.3561   0.9046
H186     H     0.0954   0.9752   0.1439
S187     S     0.0565   0.9622   0.218
V188     V     0.9809   0.9147   0.3613
Ti189     Ti     0.0123   0.938   0.2861
V190     V     0.0191   0.8613   0.4147
Ti191     Ti     0.9877   0.7861   0.438
H192     H     0.9046   0.6439   0.4752
S193     S     0.9435   0.718   0.4622
H194     H     0.8561   0.5954   0.5248
S195     S     0.782   0.5565   0.5378
Ti196     Ti     0.5621   0.4877   0.7139
V197     V     0.5853   0.5191   0.6387
Ti198     Ti     0.7139   0.5123   0.5621
V199     V     0.6387   0.4809   0.5853
S200     S     0.5378   0.4435   0.782
H201     H     0.5248   0.4046   0.8561
S202     S     0.5565   0.0378   0.282
H203     H     0.5954   0.0248   0.3561
Ti204     Ti     0.4877   0.2139   0.062
V205     V     0.5191   0.1387   0.0853
Ti206     Ti     0.5123   0.062   0.2139
V207     V     0.4809   0.0853   0.1387
S208     S     0.4435   0.282   0.0378
H209     H     0.4046   0.3561   0.0248
H210     H     0.0248   0.5954   0.6439
S211     S     0.0378   0.5565   0.718
V212     V     0.0853   0.4809   0.8613
Ti213     Ti     0.062   0.5123   0.7861
Ti214     Ti     0.2139   0.4877   0.938
V215     V     0.1387   0.5191   0.9147
S216     S     0.282   0.4435   0.9622
H217     H     0.3561   0.4046   0.9752
H218     H     0.9752   0.6439   0.5954
S219     S     0.9622   0.718   0.5565
V220     V     0.8613   0.9147   0.5191
Ti221     Ti     0.7861   0.938   0.4877
V222     V     0.9147   0.8613   0.4809
Ti223     Ti     0.938   0.7861   0.5123
S224     S     0.718   0.9622   0.4435
H225     H     0.6439   0.9752   0.4046
S226     S     0.4622   0.0565   0.282
H227     H     0.4752   0.0954   0.3561
V228     V     0.3613   0.0191   0.0853
Ti229     Ti     0.2861   0.9877   0.062
V230     V     0.4147   0.9809   0.1387
Ti231     Ti     0.438   0.0123   0.2139
H232     H     0.1439   0.9046   0.0248
S233     S     0.218   0.9435   0.0378
H234     H     0.8561   0.4752   0.5954
S235     S     0.782   0.4622   0.5565
Ti236     Ti     0.5621   0.2861   0.4877
V237     V     0.5853   0.3613   0.5191
Ti238     Ti     0.7139   0.438   0.5123
V239     V     0.6387   0.4147   0.4809
H240     H     0.5248   0.1439   0.4046
S241     S     0.5378   0.218   0.4435
H242     H     0.0954   0.8561   0.9752
S243     S     0.0565   0.782   0.9622
V244     V     0.0191   0.5853   0.8613
Ti245     Ti     0.9877   0.5621   0.7861
Ti246     Ti     0.0123   0.7139   0.938
V247     V     0.9809   0.6387   0.9147
H248     H     0.9046   0.5248   0.6439
S249     S     0.9435   0.5378   0.718
Ce250     Ce     0.9114   0.5886   0.5886
H251     H     0.0248   0.8561   0.0954
S252     S     0.0378   0.782   0.0565
Ti253     Ti     0.2139   0.5621   0.9877
V254     V     0.1387   0.5853   0.0191
Ti255     Ti     0.062   0.7139   0.0123
V256     V     0.0853   0.6387   0.9809
S257     S     0.282   0.5378   0.9435
H258     H     0.3561   0.5248   0.9046
H259     H     0.6439   0.0954   0.4752
S260     S     0.718   0.0565   0.4622
V261     V     0.9147   0.0191   0.3613
Ti262     Ti     0.938   0.9877   0.2861
V263     V     0.8613   0.9809   0.4147
Ti264     Ti     0.7861   0.0123   0.438
H265     H     0.9752   0.9046   0.1439
S266     S     0.9622   0.9435   0.218
H267     H     0.5954   0.1439   0.5248
S268     S     0.5565   0.218   0.5378
Ti269     Ti     0.5123   0.2861   0.5621
V270     V     0.4809   0.3613   0.5853
Ti271     Ti     0.4877   0.438   0.7139
V272     V     0.5191   0.4147   0.6387
S273     S     0.4435   0.4622   0.782
H274     H     0.4046   0.4752   0.8561
Ce275     Ce     0.4114   0.5886   0.9114
S276     S     0.5565   0.282   0.9622
H277     H     0.5954   0.3561   0.9752
V278     V     0.5191   0.0853   0.8613
Ti279     Ti     0.4877   0.062   0.7861
Ti280     Ti     0.5123   0.2139   0.938
V281     V     0.4809   0.1387   0.9147
S282     S     0.4435   0.0378   0.718
H283     H     0.4046   0.0248   0.6439
S284     S     0.282   0.9622   0.5565
H285     H     0.3561   0.9752   0.5954
V286     V     0.0853   0.8613   0.5191
Ti287     Ti     0.062   0.7861   0.4877
Ti288     Ti     0.2139   0.938   0.5123
V289     V     0.1387   0.9147   0.4809
S290     S     0.0378   0.718   0.4435
H291     H     0.0248   0.6439   0.4046
S292     S     0.9622   0.5565   0.282
H293     H     0.9752   0.5954   0.3561
V294     V     0.8613   0.5191   0.0853
Ti295     Ti     0.7861   0.4877   0.062
Ti296     Ti     0.938   0.5123   0.2139
V297     V     0.9147   0.4809   0.1387
S298     S     0.718   0.4435   0.0378
H299     H     0.6439   0.4046   0.0248
Ce300     Ce     0.4114   0.9114   0.5886
Ce301     Ce     0.9114   0.5886   0.4114
Ce302     Ce     0.5886   0.4114   0.9114
H303     H     0.0954   0.0248   0.8561
S304     S     0.0565   0.0378   0.782
Ti305     Ti     0.9877   0.2139   0.5621
V306     V     0.0191   0.1387   0.5853
Ti307     Ti     0.0123   0.062   0.7139
V308     V     0.9809   0.0853   0.6387
S309     S     0.9435   0.282   0.5378
H310     H     0.9046   0.3561   0.5248
H311     H     0.4752   0.6439   0.0954
S312     S     0.4622   0.718   0.0565
V313     V     0.3613   0.9147   0.0191
Ti314     Ti     0.2861   0.938   0.9877
V315     V     0.4147   0.8613   0.9809
Ti316     Ti     0.438   0.7861   0.0123
H317     H     0.1439   0.9752   0.9046
S318     S     0.218   0.9622   0.9435
H319     H     0.5248   0.5954   0.1439
S320     S     0.5378   0.5565   0.218
Ti321     Ti     0.5621   0.5123   0.2861
V322     V     0.5853   0.4809   0.3613
Ti323     Ti     0.7139   0.4877   0.438
V324     V     0.6387   0.5191   0.4147
S325     S     0.782   0.4435   0.4622
H326     H     0.8561   0.4046   0.4752
Ce327     Ce     0.9114   0.4114   0.5886
S328     S     0.0378   0.282   0.5565
H329     H     0.0248   0.3561   0.5954
Ti330     Ti     0.2139   0.062   0.4877
V331     V     0.1387   0.0853   0.5191
Ti332     Ti     0.062   0.2139   0.5123
V333     V     0.0853   0.1387   0.4809
S334     S     0.282   0.0378   0.4435
H335     H     0.3561   0.0248   0.4046
H336     H     0.5954   0.6439   0.0248
S337     S     0.5565   0.718   0.0378
V338     V     0.4809   0.8613   0.0853
Ti339     Ti     0.5123   0.7861   0.062
Ti340     Ti     0.4877   0.938   0.2139
V341     V     0.5191   0.9147   0.1387
S342     S     0.4435   0.9622   0.282
H343     H     0.4046   0.9752   0.3561
H344     H     0.6439   0.5954   0.9752
S345     S     0.718   0.5565   0.9622
V346     V     0.9147   0.5191   0.8613
Ti347     Ti     0.938   0.4877   0.7861
V348     V     0.8613   0.4809   0.9147
Ti349     Ti     0.7861   0.5123   0.938
S350     S     0.9622   0.4435   0.718
H351     H     0.9752   0.4046   0.6439
H352     H     0.0248   0.0954   0.1439
S353     S     0.0378   0.0565   0.218
V354     V     0.0853   0.9809   0.3613
Ti355     Ti     0.062   0.0123   0.2861
V356     V     0.1387   0.0191   0.4147
Ti357     Ti     0.2139   0.9877   0.438
S358     S     0.282   0.9435   0.4622
H359     H     0.3561   0.9046   0.4752
H360     H     0.9752   0.1439   0.0954
S361     S     0.9622   0.218   0.0565
V362     V     0.9147   0.3613   0.9809
Ti363     Ti     0.938   0.2861   0.0123
V364     V     0.8613   0.4147   0.0191
Ti365     Ti     0.7861   0.438   0.9877
H366     H     0.6439   0.4752   0.9046
S367     S     0.718   0.4622   0.9435
H368     H     0.5954   0.5248   0.8561
S369     S     0.5565   0.5378   0.782
Ti370     Ti     0.4877   0.7139   0.5621
V371     V     0.5191   0.6387   0.5853
Ti372     Ti     0.5123   0.5621   0.7139
V373     V     0.4809   0.5853   0.6387
S374     S     0.4435   0.782   0.5378
H375     H     0.4046   0.8561   0.5248
H376     H     0.4752   0.5954   0.8561
S377     S     0.4622   0.5565   0.782
Ti378     Ti     0.2861   0.4877   0.5621
V379     V     0.3613   0.5191   0.5853
Ti380     Ti     0.438   0.5123   0.7139
V381     V     0.4147   0.4809   0.6387
H382     H     0.1439   0.4046   0.5248
S383     S     0.218   0.4435   0.5378
H384     H     0.8561   0.9752   0.0954
S385     S     0.782   0.9622   0.0565
V386     V     0.5853   0.8613   0.0191
Ti387     Ti     0.5621   0.7861   0.9877
Ti388     Ti     0.7139   0.938   0.0123
V389     V     0.6387   0.9147   0.9809
H390     H     0.5248   0.6439   0.9046
S391     S     0.5378   0.718   0.9435
S392     S     0.0565   0.282   0.4622
H393     H     0.0954   0.3561   0.4752
V394     V     0.0191   0.0853   0.3613
Ti395     Ti     0.9877   0.062   0.2861
V396     V     0.9809   0.1387   0.4147
Ti397     Ti     0.0123   0.2139   0.438
H398     H     0.9046   0.0248   0.1439
S399     S     0.9435   0.0378   0.218
Ce400     Ce     0.5886   0.5886   0.9114
Ce401     Ce     0.9114   0.9114   0.0886
Ce402     Ce     0.0886   0.9114   0.9114
Ce403     Ce     0.4114   0.9114   0.4114
Ce404     Ce     0.5886   0.5886   0.0886
Ce405     Ce     0.5886   0.0886   0.5886
Ce406     Ce     0.9114   0.0886   0.9114
Ce407     Ce     0.0886   0.5886   0.5886
Ce408     Ce     0.4114   0.4114   0.9114
Ce409     Ce     0.9114   0.4114   0.4114
Ce410     Ce     0.0886   0.5886   0.4114
Ce411     Ce     0.4114   0.0886   0.5886
Ce412     Ce     0.5886   0.4114   0.0886
Ce413     Ce     0.9114   0.0886   0.0886
Ce414     Ce     0.0886   0.9114   0.0886
Ce415     Ce     0.0886   0.0886   0.9114
Ce416     Ce     0.0886   0.4114   0.5886
Ce417     Ce     0.5886   0.0886   0.4114
Ce418     Ce     0.4114   0.5886   0.0886
Ce419     Ce     0.0886   0.4114   0.4114
Ce420     Ce     0.4114   0.0886   0.4114
Ce421     Ce     0.4114   0.4114   0.0886
Ce422     Ce     0.0886   0.0886   0.0886
Er423     Er     0.9187   0.0813   0.5813
Er424     Er     0.5813   0.9187   0.0813
Er425     Er     0.5813   0.0813   0.9187
Er426     Er     0.9187   0.5813   0.0813
Er427     Er     0.0813   0.5813   0.0813
Er428     Er     0.9187   0.0813   0.4187
Er429     Er     0.4187   0.9187   0.0813
Er430     Er     0.0813   0.0813   0.5813
Er431     Er     0.5813   0.0813   0.0813
Er432     Er     0.0813   0.4187   0.9187
Er433     Er     0.0813   0.9187   0.5813
Er434     Er     0.0813   0.5813   0.9187
Er435     Er     0.9187   0.9187   0.4187
Er436     Er     0.9187   0.9187   0.5813
Er437     Er     0.9187   0.5813   0.9187
Er438     Er     0.9187   0.4187   0.9187
Er439     Er     0.5813   0.9187   0.9187
Er440     Er     0.5813   0.4187   0.5813
Er441     Er     0.5813   0.5813   0.4187
Er442     Er     0.4187   0.5813   0.4187
Er443     Er     0.5813   0.4187   0.4187
Er444     Er     0.4187   0.4187   0.5813
Er445     Er     0.5813   0.5813   0.5813
Er446     Er     0.4187   0.4187   0.4187
Er447     Er     0.4187   0.5813   0.5813
Er448     Er     0.4187   0.9187   0.9187
loop_
_geom_bond_atom_site_label_1
_geom_bond_atom_site_label_2
_geom_bond_distance
_geom_bond_site_symmetry_2
_ccdc_geom_bond_type
Er1     V281    10.001   .     S
Er1     V180    10.001   .     S
Er1     V92    10.001   .     S
Er2     V107    10.001   .     S
Er2     V130    10.001   .     S
Er2     V84    10.001   .     S
Er3     V297    10.001   .     S
Er3     V82    10.001   .     S
Er3     V364    10.001   .     S
Er4     V207    10.001   .     S
Er4     V228    10.001   .     S
Er4     V182    10.001   .     S
Er5     V289    10.001   .     S
Er5     V354    10.001   .     S
Er5     V190    10.001   .     S
Er6     V333    10.001   .     S
Er6     V394    10.001   .     S
Er6     V356    10.001   .     S
H7     Ce411    10.0   .     S
H7     S8    10.0   .     S
H7     H23    10.0   .     S
S8     Ti11    10.0   .     S
S8     Ti269    10.001   .     S
Ti9     V10    10.0   .     S
Ti9     S383    10.001   .     S
Ti9     S14    10.0   .     S
V10     V12    10.0   .     S
V10     Er444    10.001   .     S
Ti11     V12    10.0   .     S
Ti11     S38    10.001   .     S
V12     Er446    10.001   .     S
H13     Ce419    10.0   .     S
H13     S14    10.0   .     S
H13     H16    10.0   .     S
S14     Ti59    10.001   .     S
S15     Ti19    10.0   .     S
S15     H16    10.0   .     S
S15     Ti108    10.001   .     S
H16     Ce410    10.0   .     S
Ti17     V18    10.0   1_655     S
Ti17     S252    10.001   1_655     S
Ti17     S22    10.0   .     S
V18     Ti17    10.0   1_455     S
V18     V20    10.0   1_455     S
V18     Er427    10.001   .     S
Ti19     V20    10.0   1_455     S
Ti19     S292    10.001   1_455     S
V20     Ti19    10.0   1_655     S
V20     V18    10.0   1_655     S
V20     Er426    10.001   .     S
H21     Ce401    10.0   .     S
H21     S22    10.0   .     S
H21     H29    10.0   1_554     S
S22     Ti49    10.001   1_554     S
H23     Ce405    10.0   .     S
H23     S24    10.0   .     S
S24     Ti28    10.0   .     S
S24     Ti279    10.001   .     S
Ti25     V26    10.0   1_565     S
Ti25     S70    10.001   1_565     S
Ti25     S30    10.0   .     S
V26     Ti25    10.0   1_545     S
V26     V27    10.0   1_545     S
V26     Er425    10.001   .     S
V27     Ti28    10.0   1_565     S
V27     V26    10.0   1_565     S
V27     Er439    10.001   .     S
Ti28     V27    10.0   1_545     S
Ti28     S121    10.001   1_545     S
H29     Ce79    10.0   .     S
H29     S30    10.0   .     S
H29     H21    10.0   1_556     S
S30     Ti388    10.001   1_556     S
H31     Ce412    10.0   .     S
H31     S32    10.0   .     S
H31     H47    10.0   .     S
S32     Ti35    10.0   .     S
S32     Ti321    10.001   .     S
Ti33     V34    10.0   .     S
Ti33     S241    10.001   .     S
Ti33     S38    10.0   .     S
V34     V36    10.0   .     S
V34     Er443    10.001   .     S
Ti35     V36    10.0   .     S
Ti35     S62    10.001   .     S
V36     Er446    10.001   .     S
H37     Ce420    10.0   .     S
H37     S38    10.0   .     S
H37     H40    10.0   .     S
S39     Ti43    10.0   .     S
S39     H40    10.0   .     S
S39     Ti330    10.001   .     S
H40     Ce411    10.0   .     S
Ti41     V42    10.0   1_565     S
Ti41     S304    10.001   1_565     S
Ti41     S46    10.0   .     S
V42     Ti41    10.0   1_545     S
V42     V44    10.0   1_545     S
V42     Er430    10.001   .     S
Ti43     V44    10.0   1_545     S
Ti43     S284    10.001   1_545     S
V44     Ti43    10.0   1_565     S
V44     V42    10.0   1_565     S
V44     Er433    10.001   .     S
H45     Ce402    10.0   .     S
H45     S46    10.0   .     S
H45     H53    10.0   1_455     S
S46     Ti73    10.001   1_455     S
H47     Ce404    10.0   .     S
H47     S48    10.0   .     S
S48     Ti52    10.0   .     S
S48     Ti295    10.001   .     S
Ti49     V50    10.0   1_556     S
Ti49     S22    10.001   1_556     S
Ti49     S54    10.0   .     S
V50     Ti49    10.0   1_554     S
V50     V51    10.0   1_554     S
V50     Er426    10.001   .     S
V51     Ti52    10.0   1_556     S
V51     V50    10.0   1_556     S
V51     Er437    10.001   .     S
Ti52     V51    10.0   1_554     S
Ti52     S345    10.001   1_554     S
H53     Ce79    10.0   .     S
H53     S54    10.0   .     S
H53     H45    10.0   1_655     S
S54     Ti246    10.001   1_655     S
H55     Ce410    10.0   .     S
H55     S56    10.0   .     S
H55     H71    10.0   .     S
S56     Ti59    10.0   .     S
S56     Ti171    10.001   .     S
Ti57     V58    10.0   .     S
Ti57     S143    10.001   .     S
Ti57     S62    10.0   .     S
V58     V60    10.0   .     S
V58     Er442    10.001   .     S
Ti59     V60    10.0   .     S
V60     Er446    10.001   .     S
H61     Ce421    10.0   .     S
H61     S62    10.0   .     S
H61     H64    10.0   .     S
S63     Ti67    10.0   .     S
S63     H64    10.0   .     S
S63     Ti204    10.001   .     S
H64     Ce412    10.0   .     S
Ti65     V66    10.0   1_556     S
Ti65     S154    10.001   1_556     S
Ti65     S70    10.0   .     S
V66     Ti65    10.0   1_554     S
V66     V68    10.0   1_554     S
V66     Er431    10.001   .     S
Ti67     V68    10.0   1_554     S
Ti67     S276    10.001   1_554     S
V68     Ti67    10.0   1_556     S
V68     V66    10.0   1_556     S
V68     Er425    10.001   .     S
H69     Ce406    10.0   .     S
H69     S70    10.0   .     S
H69     H77    10.0   1_545     S
S70     Ti25    10.001   1_545     S
H71     Ce407    10.0   .     S
H71     S72    10.0   .     S
S72     Ti76    10.0   .     S
S72     Ti287    10.001   .     S
Ti73     V74    10.0   1_655     S
Ti73     S46    10.001   1_655     S
Ti73     S78    10.0   .     S
V74     Ti73    10.0   1_455     S
V74     V75    10.0   1_455     S
V74     Er433    10.001   .     S
V75     Ti76    10.0   1_655     S
V75     V74    10.0   1_655     S
V75     Er436    10.001   .     S
Ti76     V75    10.0   1_455     S
Ti76     S219    10.001   1_455     S
H77     Ce79    10.0   .     S
H77     S78    10.0   .     S
H77     H69    10.0   1_565     S
S78     Ti148    10.001   1_565     S
H80     Ce422    10.0   .     S
H80     S81    10.0   .     S
H80     H88    10.0   1_554     S
S81     Ti83    10.0   .     S
S81     Ti131    10.001   1_554     S
V82     Ti83    10.0   1_655     S
V82     V84    10.0   1_655     S
Ti83     V82    10.0   1_455     S
Ti83     S361    10.001   1_455     S
V84     Ti85    10.0   1_455     S
V84     V82    10.0   1_455     S
Ti85     V84    10.0   1_655     S
Ti85     S110    10.001   1_655     S
Ti85     S86    10.0   .     S
S86     H87    10.0   .     S
S86     Ti296    10.001   .     S
H87     Ce409    10.0   .     S
H87     H103    10.0   .     S
H88     Ce415    10.0   .     S
H88     S89    10.0   .     S
H88     H80    10.0   1_556     S
S89     Ti91    10.0   .     S
S89     Ti181    10.001   1_556     S
V90     Ti91    10.0   1_565     S
V90     V92    10.0   1_565     S
V90     Er448    10.001   .     S
Ti91     V90    10.0   1_545     S
Ti91     S318    10.001   1_545     S
V92     Ti93    10.0   1_545     S
V92     V90    10.0   1_545     S
Ti93     V92    10.0   1_565     S
Ti93     S282    10.001   1_565     S
Ti93     S95    10.0   .     S
H94     Ce300    10.0   .     S
H94     S95    10.0   .     S
H94     H96    10.0   .     S
S95     Ti125    10.001   .     S
H96     Ce152    10.0   .     S
H96     S97    10.0   .     S
S97     Ti100    10.0   .     S
S97     Ti370    10.001   .     S
Ti98     V99    10.0   .     S
Ti98     S195    10.001   .     S
Ti98     S102    10.0   .     S
V99     V101    10.0   .     S
V99     Er445    10.001   .     S
Ti100     V101    10.0   .     S
Ti100     S137    10.001   .     S
V101     Er441    10.001   .     S
S102     H103    10.0   .     S
S102     Ti323    10.001   .     S
H103     Ce301    10.0   .     S
S104     Ti106    10.0   .     S
S104     H105    10.0   .     S
S104     Ti253    10.001   1_554     S
H105     Ce418    10.0   .     S
H105     H127    10.0   1_554     S
Ti106     V107    10.0   .     S
Ti106     S128    10.001   .     S
V107     V109    10.0   .     S
Ti108     V109    10.0   .     S
Ti108     S110    10.0   .     S
V109     Er427    10.001   .     S
S110     Ti85    10.001   1_455     S
S110     H111    10.0   .     S
H111     Ce419    10.0   .     S
H111     H119    10.0   1_455     S
H112     Ce405    10.0   .     S
H112     S113    10.0   .     S
H112     H120    10.0   1_545     S
S113     Ti115    10.0   .     S
S113     Ti147    10.001   1_545     S
V114     Ti115    10.0   .     S
V114     V117    10.0   .     S
V114     Er428    10.001   .     S
Ti115     S260    10.001   .     S
Ti116     V117    10.0   .     S
Ti116     S309    10.001   .     S
Ti116     S118    10.0   .     S
V117     Er423    10.001   .     S
S118     H119    10.0   .     S
S118     Ti397    10.001   1_655     S
H119     Ce409    10.0   .     S
H119     H111    10.0   1_655     S
H120     Ce152    10.0   .     S
H120     S121    10.0   .     S
H120     H112    10.0   1_565     S
S121     Ti28    10.001   1_565     S
S121     Ti125    10.0   .     S
V122     Ti123    10.0   .     S
V122     V124    10.0   .     S
V122     Er439    10.001   .     S
Ti123     S391    10.001   .     S
Ti123     S126    10.0   .     S
V124     Ti125    10.0   .     S
V124     Er448    10.001   .     S
S126     H127    10.0   .     S
S126     Ti316    10.001   1_556     S
H127     Ce275    10.0   .     S
H127     H105    10.0   1_556     S
S128     Ti133    10.0   .     S
S128     H129    10.0   .     S
H129     Ce421    10.0   .     S
H129     H142    10.0   .     S
V130     Ti131    10.0   1_554     S
V130     V132    10.0   1_554     S
Ti131     V130    10.0   1_556     S
Ti131     S81    10.001   1_556     S
Ti131     S135    10.0   .     S
V132     Ti133    10.0   1_556     S
V132     V130    10.0   1_556     S
V132     Er432    10.001   .     S
Ti133     V132    10.0   1_554     S
Ti133     S216    10.001   1_554     S
H134     Ce415    10.0   .     S
H134     S135    10.0   .     S
H134     H144    10.0   1_455     S
S135     Ti164    10.001   1_455     S
H136     Ce177    10.0   .     S
H136     S137    10.0   .     S
H136     H150    10.0   .     S
S137     Ti140    10.0   .     S
Ti138     V139    10.0   .     S
Ti138     S320    10.001   .     S
Ti138     S143    10.0   .     S
V139     V141    10.0   .     S
V139     Er441    10.001   .     S
Ti140     V141    10.0   .     S
Ti140     S175    10.001   .     S
V141     Er442    10.001   .     S
H142     Ce418    10.0   .     S
H142     S143    10.0   .     S
H144     Ce406    10.0   .     S
H144     S145    10.0   .     S
H144     H134    10.0   1_655     S
S145     Ti148    10.0   .     S
S145     Ti307    10.001   1_655     S
V146     Ti147    10.0   1_545     S
V146     V149    10.0   1_545     S
V146     Er423    10.001   .     S
Ti147     V146    10.0   1_565     S
Ti147     S113    10.001   1_565     S
Ti147     S151    10.0   .     S
Ti148     V149    10.0   1_545     S
Ti148     S78    10.001   1_545     S
V149     Ti148    10.0   1_565     S
V149     V146    10.0   1_565     S
V149     Er436    10.001   .     S
H150     Ce152    10.0   .     S
H150     S151    10.0   .     S
S151     Ti221    10.001   .     S
H153     Ce413    10.0   .     S
H153     S154    10.0   .     S
H153     H167    10.0   1_554     S
S154     Ti65    10.001   1_554     S
S154     Ti157    10.0   .     S
Ti155     V156    10.0   1_565     S
Ti155     S202    10.001   1_565     S
Ti155     S159    10.0   .     S
V156     Ti155    10.0   1_545     S
V156     V158    10.0   1_545     S
V156     Er431    10.001   .     S
Ti157     V158    10.0   1_545     S
Ti157     S385    10.001   1_545     S
V158     Ti157    10.0   1_565     S
V158     V156    10.0   1_565     S
V158     Er424    10.001   .     S
S159     H160    10.0   .     S
S159     Ti340    10.001   .     S
H160     Ce177    10.0   .     S
H160     H176    10.0   .     S
H161     Ce416    10.0   .     S
H161     S162    10.0   .     S
H161     H169    10.0   .     S
S162     Ti166    10.0   .     S
S162     Ti213    10.001   .     S
V163     Ti164    10.0   1_455     S
V163     V165    10.0   1_455     S
V163     Er432    10.001   .     S
Ti164     V163    10.0   1_655     S
Ti164     S135    10.001   1_655     S
Ti164     S168    10.0   .     S
V165     Ti166    10.0   1_655     S
V165     V163    10.0   1_655     S
V165     Er438    10.001   .     S
Ti166     V165    10.0   1_455     S
Ti166     S350    10.001   1_455     S
H167     Ce406    10.0   .     S
H167     S168    10.0   .     S
H167     H153    10.0   1_556     S
S168     Ti363    10.001   1_556     S
H169     Ce407    10.0   .     S
H169     S170    10.0   .     S
S170     Ti171    10.0   .     S
S170     Ti378    10.001   .     S
Ti171     V172    10.0   .     S
V172     V174    10.0   .     S
V172     Er442    10.001   .     S
Ti173     V174    10.0   .     S
Ti173     S374    10.001   .     S
Ti173     S175    10.0   .     S
V174     Er447    10.001   .     S
S175     H176    10.0   .     S
H176     Ce403    10.0   .     S
Ce177     H225    10.0   .     S
H178     Ce422    10.0   .     S
H178     S179    10.0   .     S
H178     H186    10.0   1_545     S
S179     Ti181    10.0   .     S
S179     Ti229    10.001   1_545     S
V180     Ti181    10.0   1_556     S
V180     V182    10.0   1_556     S
Ti181     V180    10.0   1_554     S
Ti181     S89    10.001   1_554     S
V182     Ti183    10.0   1_554     S
V182     V180    10.0   1_554     S
Ti183     V182    10.0   1_556     S
Ti183     S208    10.001   1_556     S
Ti183     S184    10.0   .     S
S184     H185    10.0   .     S
S184     Ti280    10.001   .     S
H185     Ce408    10.0   .     S
H185     H201    10.0   .     S
H186     Ce414    10.0   .     S
H186     S187    10.0   .     S
H186     H178    10.0   1_565     S
S187     Ti189    10.0   .     S
S187     Ti355    10.001   1_565     S
V188     Ti189    10.0   1_655     S
V188     V190    10.0   1_655     S
V188     Er435    10.001   .     S
Ti189     V188    10.0   1_455     S
Ti189     S266    10.001   1_455     S
V190     Ti191    10.0   1_455     S
V190     V188    10.0   1_455     S
Ti191     V190    10.0   1_655     S
Ti191     S290    10.001   1_655     S
Ti191     S193    10.0   .     S
H192     Ce301    10.0   .     S
H192     S193    10.0   .     S
H192     H194    10.0   .     S
S193     Ti223    10.001   .     S
H194     Ce250    10.0   .     S
H194     S195    10.0   .     S
S195     Ti198    10.0   .     S
Ti196     V197    10.0   .     S
Ti196     S369    10.001   .     S
Ti196     S200    10.0   .     S
V197     V199    10.0   .     S
V197     Er445    10.001   .     S
Ti198     V199    10.0   .     S
Ti198     S235    10.001   .     S
V199     Er440    10.001   .     S
S200     H201    10.0   .     S
S200     Ti271    10.001   .     S
H201     Ce302    10.0   .     S
S202     Ti155    10.001   1_545     S
S202     Ti206    10.0   .     S
S202     H203    10.0   .     S
H203     Ce417    10.0   .     S
H203     H225    10.0   1_545     S
Ti204     V205    10.0   .     S
Ti204     S208    10.0   .     S
V205     V207    10.0   .     S
V205     Er431    10.001   .     S
Ti206     V207    10.0   .     S
Ti206     S226    10.001   .     S
S208     Ti183    10.001   1_554     S
S208     H209    10.0   .     S
H209     Ce421    10.0   .     S
H209     H217    10.0   1_554     S
H210     Ce407    10.0   .     S
H210     S211    10.0   .     S
H210     H218    10.0   1_455     S
S211     Ti213    10.0   .     S
S211     Ti245    10.001   1_455     S
V212     Ti213    10.0   .     S
V212     V215    10.0   .     S
V212     Er432    10.001   .     S
Ti214     V215    10.0   .     S
Ti214     S257    10.001   .     S
Ti214     S216    10.0   .     S
V215     Er434    10.001   .     S
S216     Ti133    10.001   1_556     S
S216     H217    10.0   .     S
H217     Ce408    10.0   .     S
H217     H209    10.0   1_556     S
H218     Ce250    10.0   .     S
H218     S219    10.0   .     S
H218     H210    10.0   1_655     S
S219     Ti76    10.001   1_655     S
S219     Ti223    10.0   .     S
V220     Ti221    10.0   .     S
V220     V222    10.0   .     S
V220     Er436    10.001   .     S
Ti221     S224    10.0   .     S
V222     Ti223    10.0   .     S
V222     Er435    10.001   .     S
S224     H225    10.0   .     S
S224     Ti264    10.001   1_565     S
H225     H203    10.0   1_565     S
S226     Ti231    10.0   .     S
S226     H227    10.0   .     S
H227     Ce420    10.0   .     S
H227     H240    10.0   .     S
V228     Ti229    10.0   1_545     S
V228     V230    10.0   1_545     S
Ti229     V228    10.0   1_565     S
Ti229     S179    10.001   1_565     S
Ti229     S233    10.0   .     S
V230     Ti231    10.0   1_565     S
V230     V228    10.0   1_565     S
V230     Er429    10.001   .     S
Ti231     V230    10.0   1_545     S
Ti231     S342    10.001   1_545     S
H232     Ce414    10.0   .     S
H232     S233    10.0   .     S
H232     H242    10.0   1_554     S
S233     Ti314    10.001   1_554     S
H234     Ce327    10.0   .     S
H234     S235    10.0   .     S
H234     H248    10.0   .     S
S235     Ti238    10.0   .     S
Ti236     V237    10.0   .     S
Ti236     S268    10.001   .     S
Ti236     S241    10.0   .     S
V237     V239    10.0   .     S
V237     Er440    10.001   .     S
Ti238     V239    10.0   .     S
Ti238     S325    10.001   .     S
V239     Er443    10.001   .     S
H240     Ce417    10.0   .     S
H240     S241    10.0   .     S
H242     Ce402    10.0   .     S
H242     S243    10.0   .     S
H242     H232    10.0   1_556     S
S243     Ti246    10.0   .     S
S243     Ti255    10.001   1_556     S
V244     Ti245    10.0   1_455     S
V244     V247    10.0   1_455     S
V244     Er434    10.001   .     S
Ti245     V244    10.0   1_655     S
Ti245     S211    10.001   1_655     S
Ti245     S249    10.0   .     S
Ti246     V247    10.0   1_455     S
Ti246     S54    10.001   1_455     S
V247     Ti246    10.0   1_655     S
V247     V244    10.0   1_655     S
V247     Er437    10.001   .     S
H248     Ce250    10.0   .     S
H248     S249    10.0   .     S
S249     Ti347    10.001   .     S
H251     Ce414    10.0   .     S
H251     S252    10.0   .     S
H251     H265    10.0   1_455     S
S252     Ti17    10.001   1_455     S
S252     Ti255    10.0   .     S
Ti253     V254    10.0   1_556     S
Ti253     S104    10.001   1_556     S
Ti253     S257    10.0   .     S
V254     Ti253    10.0   1_554     S
V254     V256    10.0   1_554     S
V254     Er427    10.001   .     S
Ti255     V256    10.0   1_554     S
Ti255     S243    10.001   1_554     S
V256     Ti255    10.0   1_556     S
V256     V254    10.0   1_556     S
V256     Er434    10.001   .     S
S257     H258    10.0   .     S
H258     Ce275    10.0   .     S
H258     H274    10.0   .     S
H259     Ce417    10.0   .     S
H259     S260    10.0   .     S
H259     H267    10.0   .     S
S260     Ti264    10.0   .     S
V261     Ti262    10.0   1_545     S
V261     V263    10.0   1_545     S
V261     Er428    10.001   .     S
Ti262     V261    10.0   1_565     S
Ti262     S399    10.001   1_565     S
Ti262     S266    10.0   .     S
V263     Ti264    10.0   1_565     S
V263     V261    10.0   1_565     S
V263     Er435    10.001   .     S
Ti264     V263    10.0   1_545     S
Ti264     S224    10.001   1_545     S
H265     Ce401    10.0   .     S
H265     S266    10.0   .     S
H265     H251    10.0   1_655     S
S266     Ti189    10.001   1_655     S
H267     Ce405    10.0   .     S
H267     S268    10.0   .     S
S268     Ti269    10.0   .     S
Ti269     V270    10.0   .     S
V270     V272    10.0   .     S
V270     Er444    10.001   .     S
Ti271     V272    10.0   .     S
Ti271     S273    10.0   .     S
V272     Er440    10.001   .     S
S273     H274    10.0   .     S
S273     Ti380    10.001   .     S
H274     Ce408    10.0   .     S
Ce275     H376    10.0   .     S
S276     Ti67    10.001   1_556     S
S276     Ti280    10.0   .     S
S276     H277    10.0   .     S
H277     Ce302    10.0   .     S
H277     H299    10.0   1_556     S
V278     Ti279    10.0   .     S
V278     V281    10.0   .     S
V278     Er425    10.001   .     S
Ti279     S282    10.0   .     S
Ti280     V281    10.0   .     S
S282     Ti93    10.001   1_545     S
S282     H283    10.0   .     S
H283     Ce411    10.0   .     S
H283     H285    10.0   1_545     S
S284     Ti43    10.001   1_565     S
S284     Ti288    10.0   .     S
S284     H285    10.0   .     S
H285     H283    10.0   1_565     S
H285     Ce300    10.0   .     S
V286     Ti287    10.0   .     S
V286     V289    10.0   .     S
V286     Er433    10.001   .     S
Ti287     S290    10.0   .     S
Ti288     V289    10.0   .     S
Ti288     S358    10.001   .     S
S290     Ti191    10.001   1_455     S
S290     H291    10.0   .     S
H291     Ce410    10.0   .     S
H291     H293    10.0   1_455     S
S292     Ti19    10.001   1_655     S
S292     Ti296    10.0   .     S
S292     H293    10.0   .     S
H293     H291    10.0   1_655     S
H293     Ce301    10.0   .     S
V294     Ti295    10.0   .     S
V294     V297    10.0   .     S
V294     Er426    10.001   .     S
Ti295     S298    10.0   .     S
Ti296     V297    10.0   .     S
S298     H299    10.0   .     S
S298     Ti365    10.001   1_554     S
H299     Ce412    10.0   .     S
H299     H277    10.0   1_554     S
Ce300     H375    10.0   .     S
Ce302     H366    10.0   .     S
H303     Ce415    10.0   .     S
H303     S304    10.0   .     S
H303     H317    10.0   1_545     S
S304     Ti41    10.001   1_545     S
S304     Ti307    10.0   .     S
Ti305     V306    10.0   1_655     S
Ti305     S328    10.001   1_655     S
Ti305     S309    10.0   .     S
V306     Ti305    10.0   1_455     S
V306     V308    10.0   1_455     S
V306     Er430    10.001   .     S
Ti307     V308    10.0   1_455     S
Ti307     S145    10.001   1_455     S
V308     Ti307    10.0   1_655     S
V308     V306    10.0   1_655     S
V308     Er423    10.001   .     S
S309     H310    10.0   .     S
H310     Ce327    10.0   .     S
H310     H326    10.0   .     S
H311     Ce418    10.0   .     S
H311     S312    10.0   .     S
H311     H319    10.0   .     S
S312     Ti316    10.0   .     S
S312     Ti339    10.001   .     S
V313     Ti314    10.0   1_554     S
V313     V315    10.0   1_554     S
V313     Er429    10.001   .     S
Ti314     V313    10.0   1_556     S
Ti314     S233    10.001   1_556     S
Ti314     S318    10.0   .     S
V315     Ti316    10.0   1_556     S
V315     V313    10.0   1_556     S
V315     Er448    10.001   .     S
Ti316     V315    10.0   1_554     S
Ti316     S126    10.001   1_554     S
H317     Ce402    10.0   .     S
H317     S318    10.0   .     S
H317     H303    10.0   1_565     S
S318     Ti91    10.001   1_565     S
H319     Ce404    10.0   .     S
H319     S320    10.0   .     S
S320     Ti321    10.0   .     S
Ti321     V322    10.0   .     S
V322     V324    10.0   .     S
V322     Er443    10.001   .     S
Ti323     V324    10.0   .     S
Ti323     S325    10.0   .     S
V324     Er441    10.001   .     S
S325     H326    10.0   .     S
H326     Ce409    10.0   .     S
Ce327     H351    10.0   .     S
S328     Ti305    10.001   1_455     S
S328     Ti332    10.0   .     S
S328     H329    10.0   .     S
H329     Ce416    10.0   .     S
H329     H351    10.0   1_455     S
Ti330     V331    10.0   .     S
Ti330     S334    10.0   .     S
V331     V333    10.0   .     S
V331     Er430    10.001   .     S
Ti332     V333    10.0   .     S
Ti332     S392    10.001   .     S
S334     H335    10.0   .     S
S334     Ti357    10.001   1_545     S
H335     Ce420    10.0   .     S
H335     H343    10.0   1_545     S
H336     Ce404    10.0   .     S
H336     S337    10.0   .     S
H336     H344    10.0   1_554     S
S337     Ti339    10.0   .     S
S337     Ti387    10.001   1_554     S
V338     Ti339    10.0   .     S
V338     V341    10.0   .     S
V338     Er429    10.001   .     S
Ti340     V341    10.0   .     S
Ti340     S342    10.0   .     S
V341     Er424    10.001   .     S
S342     Ti231    10.001   1_565     S
S342     H343    10.0   .     S
H343     Ce403    10.0   .     S
H343     H335    10.0   1_565     S
H344     Ce400    10.0   .     S
H344     S345    10.0   .     S
H344     H336    10.0   1_556     S
S345     Ti52    10.001   1_556     S
S345     Ti349    10.0   .     S
V346     Ti347    10.0   .     S
V346     V348    10.0   .     S
V346     Er437    10.001   .     S
Ti347     S350    10.0   .     S
V348     Ti349    10.0   .     S
V348     Er438    10.001   .     S
Ti349     S367    10.001   .     S
S350     Ti166    10.001   1_655     S
S350     H351    10.0   .     S
H351     H329    10.0   1_655     S
H352     Ce422    10.0   .     S
H352     S353    10.0   .     S
H352     H360    10.0   1_455     S
S353     Ti355    10.0   .     S
S353     Ti395    10.001   1_455     S
V354     Ti355    10.0   1_565     S
V354     V356    10.0   1_565     S
Ti355     V354    10.0   1_545     S
Ti355     S187    10.001   1_545     S
V356     Ti357    10.0   1_545     S
V356     V354    10.0   1_545     S
Ti357     V356    10.0   1_565     S
Ti357     S334    10.001   1_565     S
Ti357     S358    10.0   .     S
S358     H359    10.0   .     S
H359     Ce403    10.0   .     S
H359     H375    10.0   .     S
H360     Ce413    10.0   .     S
H360     S361    10.0   .     S
H360     H352    10.0   1_655     S
S361     Ti83    10.001   1_655     S
S361     Ti363    10.0   .     S
V362     Ti363    10.0   1_556     S
V362     V364    10.0   1_556     S
V362     Er438    10.001   .     S
Ti363     V362    10.0   1_554     S
Ti363     S168    10.001   1_554     S
V364     Ti365    10.0   1_554     S
V364     V362    10.0   1_554     S
Ti365     V364    10.0   1_556     S
Ti365     S298    10.001   1_556     S
Ti365     S367    10.0   .     S
H366     S367    10.0   .     S
H366     H368    10.0   .     S
H368     Ce400    10.0   .     S
H368     S369    10.0   .     S
S369     Ti372    10.0   .     S
Ti370     V371    10.0   .     S
Ti370     S374    10.0   .     S
V371     V373    10.0   .     S
V371     Er445    10.001   .     S
Ti372     V373    10.0   .     S
Ti372     S377    10.001   .     S
V373     Er447    10.001   .     S
S374     H375    10.0   .     S
H376     S377    10.0   .     S
H376     H390    10.0   .     S
S377     Ti380    10.0   .     S
Ti378     V379    10.0   .     S
Ti378     S383    10.0   .     S
V379     V381    10.0   .     S
V379     Er447    10.001   .     S
Ti380     V381    10.0   .     S
V381     Er444    10.001   .     S
H382     Ce416    10.0   .     S
H382     S383    10.0   .     S
H382     H393    10.0   .     S
H384     Ce401    10.0   .     S
H384     S385    10.0   .     S
H384     H398    10.0   1_565     S
S385     Ti157    10.001   1_565     S
S385     Ti388    10.0   .     S
V386     Ti387    10.0   1_554     S
V386     V389    10.0   1_554     S
V386     Er424    10.001   .     S
Ti387     V386    10.0   1_556     S
Ti387     S337    10.001   1_556     S
Ti387     S391    10.0   .     S
Ti388     V389    10.0   1_554     S
Ti388     S30    10.001   1_554     S
V389     Ti388    10.0   1_556     S
V389     V386    10.0   1_556     S
V389     Er439    10.001   .     S
H390     Ce400    10.0   .     S
H390     S391    10.0   .     S
S392     Ti397    10.0   .     S
S392     H393    10.0   .     S
H393     Ce419    10.0   .     S
V394     Ti395    10.0   1_455     S
V394     V396    10.0   1_455     S
Ti395     V394    10.0   1_655     S
Ti395     S353    10.001   1_655     S
Ti395     S399    10.0   .     S
V396     Ti397    10.0   1_655     S
V396     V394    10.0   1_655     S
V396     Er428    10.001   .     S
Ti397     V396    10.0   1_455     S
Ti397     S118    10.001   1_455     S
H398     Ce413    10.0   .     S
H398     S399    10.0   .     S
H398     H384    10.0   1_545     S
S399     Ti262    10.001   1_545     S
