data_kgs
_audit_creation_date              2020-02-02
_audit_creation_method            'Pymatgen'
_symmetry_space_group_name_H-M    'P1'
_symmetry_Int_Tables_number       1
loop_
_symmetry_equiv_pos_as_xyz
  x,y,z
_cell_length_a                    116.4092
_cell_length_b                    116.4092
_cell_length_c                    116.4092
_cell_angle_alpha                 90.0
_cell_angle_beta                 90.0
_cell_angle_gamma                 90.0
loop_
_atom_site_label
_atom_site_type_symbol
_atom_site_fract_x
_atom_site_fract_y
_atom_site_fract_z
Ce1     Ce     0.453   0.2122   0.9818
Ce2     Ce     0.547   0.2122   0.0182
Ce3     Ce     0.5182   0.2878   0.047
Ce4     Ce     0.4818   0.2878   0.953
H5     H     0.4786   0.2117   0.0491
H6     H     0.5214   0.2117   0.9509
H7     H     0.5491   0.2883   0.9786
H8     H     0.4509   0.2883   0.0214
Ce9     Ce     0.9818   0.453   0.2122
Ce10     Ce     0.0182   0.547   0.2122
Ce11     Ce     0.047   0.5182   0.2878
Ce12     Ce     0.953   0.4818   0.2878
H13     H     0.0491   0.4786   0.2117
H14     H     0.9509   0.5214   0.2117
H15     H     0.9786   0.5491   0.2883
H16     H     0.0214   0.4509   0.2883
Ce17     Ce     0.2122   0.9818   0.453
Ce18     Ce     0.2878   0.047   0.5182
Ce19     Ce     0.2122   0.0182   0.547
Ce20     Ce     0.2878   0.953   0.4818
H21     H     0.2117   0.0491   0.4786
H22     H     0.2117   0.9509   0.5214
H23     H     0.2883   0.9786   0.5491
H24     H     0.2883   0.0214   0.4509
Ce25     Ce     0.7878   0.453   0.9818
Ce26     Ce     0.7878   0.547   0.0182
Ce27     Ce     0.7121   0.5182   0.047
Ce28     Ce     0.7121   0.4818   0.953
H29     H     0.7883   0.4786   0.0491
H30     H     0.7883   0.5214   0.9509
H31     H     0.7117   0.5491   0.9786
H32     H     0.7117   0.4509   0.0214
Ce33     Ce     0.2122   0.547   0.9818
Ce34     Ce     0.2122   0.453   0.0182
Ce35     Ce     0.2878   0.5182   0.953
Ce36     Ce     0.2878   0.4818   0.047
H37     H     0.2117   0.5214   0.0491
H38     H     0.2117   0.4786   0.9509
H39     H     0.2883   0.4509   0.9786
H40     H     0.2883   0.5491   0.0214
Ce41     Ce     0.453   0.9818   0.7878
Ce42     Ce     0.547   0.0182   0.7878
Ce43     Ce     0.5182   0.047   0.7121
Ce44     Ce     0.4818   0.953   0.7121
H45     H     0.4786   0.0491   0.7883
H46     H     0.5214   0.9509   0.7883
H47     H     0.5491   0.9786   0.7117
H48     H     0.4509   0.0214   0.7117
Ce49     Ce     0.547   0.9818   0.2122
Ce50     Ce     0.453   0.0182   0.2122
Ce51     Ce     0.5182   0.953   0.2878
Ce52     Ce     0.4818   0.047   0.2878
H53     H     0.5214   0.0491   0.2117
H54     H     0.4786   0.9509   0.2117
H55     H     0.5491   0.0214   0.2883
H56     H     0.4509   0.9786   0.2883
Ce57     Ce     0.9818   0.7878   0.453
Ce58     Ce     0.0182   0.7878   0.547
Ce59     Ce     0.047   0.7121   0.5182
Ce60     Ce     0.953   0.7121   0.4818
H61     H     0.0491   0.7883   0.4786
H62     H     0.9509   0.7883   0.5214
H63     H     0.9786   0.7117   0.5491
H64     H     0.0214   0.7117   0.4509
Ce65     Ce     0.9818   0.2122   0.547
Ce66     Ce     0.953   0.2878   0.5182
Ce67     Ce     0.0182   0.2122   0.453
Ce68     Ce     0.047   0.2878   0.4818
H69     H     0.0491   0.2117   0.5214
H70     H     0.9509   0.2117   0.4786
H71     H     0.9786   0.2883   0.4509
H72     H     0.0214   0.2883   0.5491
Er73     Er     0.0816   0.1397   0.4876
Er74     Er     0.1397   0.0816   0.5125
Er75     Er     0.1397   0.9184   0.4876
Er76     Er     0.0816   0.8603   0.5125
V77     V     0.0156   0.1386   0.5757
Ti78     Ti     0.9808   0.0848   0.6329
He79     He     0.918   0.0803   0.5745
V80     V     0.8614   0.0156   0.5757
Ti81     Ti     0.9152   0.9808   0.6329
He82     He     0.9197   0.918   0.5745
V83     V     0.9844   0.8614   0.5757
Ti84     Ti     0.0192   0.9152   0.6329
He85     He     0.082   0.9197   0.5745
V86     V     0.1386   0.9844   0.5757
Ti87     Ti     0.0848   0.0192   0.6329
He88     He     0.0803   0.082   0.5745
Er89     Er     0.9184   0.8603   0.4876
Er90     Er     0.8603   0.9184   0.5125
Er91     Er     0.9184   0.1397   0.5125
Er92     Er     0.8603   0.0816   0.4876
V93     V     0.1386   0.0156   0.4243
Ti94     Ti     0.0848   0.9808   0.3671
He95     He     0.0803   0.918   0.4255
V96     V     0.0156   0.8614   0.4243
Ti97     Ti     0.9808   0.9152   0.3671
He98     He     0.918   0.9197   0.4255
V99     V     0.8614   0.9844   0.4243
Ti100     Ti     0.9152   0.0192   0.3671
He101     He     0.9197   0.082   0.4255
V102     V     0.9844   0.1386   0.4243
Ti103     Ti     0.0192   0.0848   0.3671
He104     He     0.082   0.0803   0.4255
Er105     Er     0.4876   0.0816   0.1397
Er106     Er     0.5125   0.1397   0.0816
Er107     Er     0.4876   0.1397   0.9184
Er108     Er     0.5125   0.0816   0.8603
Er109     Er     0.5125   0.9184   0.1397
Er110     Er     0.4876   0.8603   0.0816
V111     V     0.4243   0.1386   0.0156
Ti112     Ti     0.3671   0.0848   0.9808
He113     He     0.4255   0.0803   0.918
V114     V     0.4243   0.0156   0.8614
Ti115     Ti     0.3671   0.9808   0.9152
He116     He     0.4255   0.918   0.9197
V117     V     0.4243   0.8614   0.9844
Ti118     Ti     0.3671   0.9152   0.0192
He119     He     0.4255   0.9197   0.082
V120     V     0.4243   0.9844   0.1386
Ti121     Ti     0.3671   0.0192   0.0848
He122     He     0.4255   0.082   0.0803
Er123     Er     0.4876   0.9184   0.8603
Er124     Er     0.5125   0.8603   0.9184
V125     V     0.5757   0.0156   0.1386
Ti126     Ti     0.6329   0.9808   0.0848
He127     He     0.5745   0.918   0.0803
V128     V     0.5757   0.8614   0.0156
Ti129     Ti     0.6329   0.9152   0.9808
He130     He     0.5745   0.9197   0.918
V131     V     0.5757   0.9844   0.8614
Ti132     Ti     0.6329   0.0192   0.9152
He133     He     0.5745   0.082   0.9197
V134     V     0.5757   0.1386   0.9844
Ti135     Ti     0.6329   0.0848   0.0192
He136     He     0.5745   0.0803   0.082
Er137     Er     0.1397   0.4876   0.0816
Er138     Er     0.0816   0.5125   0.1397
Er139     Er     0.1397   0.5125   0.9184
Er140     Er     0.0816   0.4876   0.8603
Er141     Er     0.9184   0.4876   0.1397
Er142     Er     0.8603   0.5125   0.0816
V143     V     0.1386   0.5757   0.0156
Ti144     Ti     0.0848   0.6329   0.9808
He145     He     0.0803   0.5745   0.918
V146     V     0.0156   0.5757   0.8614
Ti147     Ti     0.9808   0.6329   0.9152
He148     He     0.918   0.5745   0.9197
V149     V     0.8614   0.5757   0.9844
Ti150     Ti     0.9152   0.6329   0.0192
He151     He     0.9197   0.5745   0.082
V152     V     0.9844   0.5757   0.1386
Ti153     Ti     0.0192   0.6329   0.0848
He154     He     0.082   0.5745   0.0803
Er155     Er     0.8603   0.4876   0.9184
Er156     Er     0.9184   0.5125   0.8603
V157     V     0.0156   0.4243   0.1386
Ti158     Ti     0.9808   0.3671   0.0848
He159     He     0.918   0.4255   0.0803
V160     V     0.8614   0.4243   0.0156
Ti161     Ti     0.9152   0.3671   0.9808
He162     He     0.9197   0.4255   0.918
V163     V     0.9844   0.4243   0.8614
Ti164     Ti     0.0192   0.3671   0.9152
He165     He     0.082   0.4255   0.9197
V166     V     0.1386   0.4243   0.9844
Ti167     Ti     0.0848   0.3671   0.0192
He168     He     0.0803   0.4255   0.082
B169     B     0.7784   0.9619   0.0581
S170     S     0.7092   0.0127   0.0613
B171     B     0.7784   0.0581   0.0381
S172     S     0.7092   0.0613   0.9873
B173     B     0.7784   0.9419   0.9619
S174     S     0.7092   0.9387   0.0127
B175     B     0.7784   0.0381   0.9419
S176     S     0.7092   0.9873   0.9387
B177     B     0.0581   0.7784   0.9619
S178     S     0.0613   0.7092   0.0127
B179     B     0.0381   0.7784   0.0581
S180     S     0.9873   0.7092   0.0613
B181     B     0.9619   0.7784   0.9419
S182     S     0.0127   0.7092   0.9387
B183     B     0.9419   0.7784   0.0381
S184     S     0.9387   0.7092   0.9873
B185     B     0.9619   0.0581   0.7784
S186     S     0.0127   0.0613   0.7092
B187     B     0.0581   0.0381   0.7784
S188     S     0.0613   0.9873   0.7092
B189     B     0.9419   0.9619   0.7784
S190     S     0.9387   0.0127   0.7092
B191     B     0.0381   0.9419   0.7784
S192     S     0.9873   0.9387   0.7092
B193     B     0.2216   0.0581   0.9619
S194     S     0.2908   0.0613   0.0127
B195     B     0.2216   0.0381   0.0581
S196     S     0.2908   0.9873   0.0613
B197     B     0.2216   0.9619   0.9419
S198     S     0.2908   0.0127   0.9387
B199     B     0.2216   0.9419   0.0381
S200     S     0.2908   0.9387   0.9873
B201     B     0.0581   0.9619   0.2216
S202     S     0.0613   0.0127   0.2908
B203     B     0.0381   0.0581   0.2216
S204     S     0.9873   0.0613   0.2908
B205     B     0.9619   0.9419   0.2216
S206     S     0.0127   0.9387   0.2908
B207     B     0.9419   0.0381   0.2216
S208     S     0.9387   0.9873   0.2908
Li209     Li     0.0908   0.9092   0.0908
Be210     Be     0.0991   0.9736   0.147
Be211     Be     0.147   0.9009   0.0264
Be212     Be     0.0264   0.853   0.0991
Li213     Li     0.9092   0.9092   0.0908
Be214     Be     0.9736   0.9009   0.147
Be215     Be     0.853   0.9736   0.0991
Be216     Be     0.9009   0.853   0.0264
Li217     Li     0.0908   0.9092   0.9092
Be218     Be     0.147   0.9736   0.9009
Be219     Be     0.0991   0.853   0.9736
Be220     Be     0.0264   0.9009   0.853
Li221     Li     0.9092   0.9092   0.9092
Be222     Be     0.9009   0.9736   0.853
Be223     Be     0.9736   0.853   0.9009
Be224     Be     0.853   0.9009   0.9736
Li225     Li     0.9092   0.0908   0.9092
Be226     Be     0.9009   0.147   0.9736
Be227     Be     0.9736   0.0991   0.853
Be228     Be     0.853   0.0264   0.9009
Li229     Li     0.0908   0.0908   0.9092
Be230     Be     0.147   0.0991   0.9736
Be231     Be     0.0264   0.147   0.9009
Be232     Be     0.0991   0.0264   0.853
Li233     Li     0.9092   0.0908   0.0908
Be234     Be     0.9736   0.147   0.0991
Be235     Be     0.9009   0.0264   0.147
Be236     Be     0.853   0.0991   0.0264
Li237     Li     0.0908   0.0908   0.0908
Be238     Be     0.0264   0.0991   0.147
Be239     Be     0.147   0.0264   0.0991
Be240     Be     0.0991   0.147   0.0264
B241     B     0.9619   0.2216   0.0581
S242     S     0.0127   0.2908   0.0613
B243     B     0.0581   0.2216   0.0381
S244     S     0.0613   0.2908   0.9873
B245     B     0.9419   0.2216   0.9619
S246     S     0.9387   0.2908   0.0127
B247     B     0.0381   0.2216   0.9419
S248     S     0.9873   0.2908   0.9387
Ce249     Ce     0.9818   0.547   0.7878
Ce250     Ce     0.0182   0.453   0.7878
Ce251     Ce     0.953   0.5182   0.7121
Ce252     Ce     0.047   0.4818   0.7121
H253     H     0.9786   0.4509   0.7117
H254     H     0.0491   0.5214   0.7883
H255     H     0.9509   0.4786   0.7883
H256     H     0.0214   0.5491   0.7117
Ce257     Ce     0.547   0.7878   0.9818
Ce258     Ce     0.453   0.7878   0.0182
Ce259     Ce     0.5182   0.7121   0.953
Ce260     Ce     0.4818   0.7121   0.047
H261     H     0.4509   0.7117   0.9786
H262     H     0.4786   0.7883   0.9509
H263     H     0.5214   0.7883   0.0491
H264     H     0.5491   0.7117   0.0214
Ce265     Ce     0.7878   0.9818   0.547
Ce266     Ce     0.7878   0.0182   0.453
Ce267     Ce     0.7121   0.953   0.5182
Ce268     Ce     0.7121   0.047   0.4818
H269     H     0.7883   0.0491   0.5214
H270     H     0.7883   0.9509   0.4786
H271     H     0.7117   0.9786   0.4509
H272     H     0.7117   0.0214   0.5491
Er273     Er     0.9876   0.4184   0.3603
Er274     Er     0.0124   0.3603   0.4184
Er275     Er     0.9876   0.3603   0.5816
Er276     Er     0.0124   0.4184   0.6397
V277     V     0.0757   0.4844   0.3614
Ti278     Ti     0.1329   0.5192   0.4152
He279     He     0.0745   0.582   0.4197
V280     V     0.0757   0.3614   0.5157
Ti281     Ti     0.1329   0.4152   0.4808
He282     He     0.0745   0.4197   0.418
V283     V     0.0757   0.6386   0.4844
Ti284     Ti     0.1329   0.5848   0.5192
He285     He     0.0745   0.5803   0.582
V286     V     0.0757   0.5157   0.6386
Ti287     Ti     0.1329   0.4808   0.5848
He288     He     0.0745   0.418   0.5803
Er289     Er     0.9876   0.5816   0.6397
Er290     Er     0.0124   0.6397   0.5816
Er291     Er     0.0124   0.5816   0.3603
Er292     Er     0.9876   0.6397   0.4184
V293     V     0.9243   0.3614   0.4844
Ti294     Ti     0.8671   0.4152   0.5192
He295     He     0.9255   0.4197   0.582
V296     V     0.9243   0.5157   0.3614
Ti297     Ti     0.8671   0.4808   0.4152
He298     He     0.9255   0.418   0.4197
V299     V     0.9243   0.6386   0.5157
Ti300     Ti     0.8671   0.5848   0.4808
He301     He     0.9255   0.5803   0.418
V302     V     0.9243   0.4844   0.6386
Ti303     Ti     0.8671   0.5192   0.5848
He304     He     0.9255   0.582   0.5803
Er305     Er     0.4184   0.3603   0.9876
Er306     Er     0.3603   0.4184   0.0124
Er307     Er     0.3603   0.5816   0.9876
Er308     Er     0.4184   0.6397   0.0124
Er309     Er     0.5816   0.3603   0.0124
Er310     Er     0.6397   0.4184   0.9876
V311     V     0.4844   0.3614   0.0757
Ti312     Ti     0.5192   0.4152   0.1329
He313     He     0.582   0.4197   0.0745
V314     V     0.3614   0.5157   0.0757
Ti315     Ti     0.4152   0.4808   0.1329
He316     He     0.4197   0.418   0.0745
V317     V     0.6386   0.4844   0.0757
Ti318     Ti     0.5848   0.5192   0.1329
He319     He     0.5803   0.582   0.0745
V320     V     0.5157   0.6386   0.0757
Ti321     Ti     0.4808   0.5848   0.1329
He322     He     0.418   0.5803   0.0745
Er323     Er     0.5816   0.6397   0.9876
Er324     Er     0.6397   0.5816   0.0124
V325     V     0.3614   0.4844   0.9243
Ti326     Ti     0.4152   0.5192   0.8671
He327     He     0.4197   0.582   0.9255
V328     V     0.5157   0.3614   0.9243
Ti329     Ti     0.4808   0.4152   0.8671
He330     He     0.418   0.4197   0.9255
V331     V     0.6386   0.5157   0.9243
Ti332     Ti     0.5848   0.4808   0.8671
He333     He     0.5803   0.418   0.9255
V334     V     0.4844   0.6386   0.9243
Ti335     Ti     0.5192   0.5848   0.8671
He336     He     0.582   0.5803   0.9255
Er337     Er     0.3603   0.9876   0.4184
Er338     Er     0.4184   0.0124   0.3603
Er339     Er     0.3603   0.0124   0.5816
Er340     Er     0.4184   0.9876   0.6397
V341     V     0.4844   0.9243   0.3614
Ti342     Ti     0.5192   0.8671   0.4152
He343     He     0.582   0.9255   0.4197
V344     V     0.3614   0.9243   0.5157
Ti345     Ti     0.4152   0.8671   0.4808
He346     He     0.4197   0.9255   0.418
V347     V     0.6386   0.9243   0.4844
Ti348     Ti     0.5848   0.8671   0.5192
He349     He     0.5803   0.9255   0.582
V350     V     0.5157   0.9243   0.6386
Ti351     Ti     0.4808   0.8671   0.5848
He352     He     0.418   0.9255   0.5803
Er353     Er     0.6397   0.9876   0.5816
Er354     Er     0.5816   0.0124   0.6397
Er355     Er     0.5816   0.9876   0.3603
Er356     Er     0.6397   0.0124   0.4184
V357     V     0.3614   0.0757   0.4844
Ti358     Ti     0.4152   0.1329   0.5192
He359     He     0.4197   0.0745   0.582
V360     V     0.5157   0.0757   0.3614
Ti361     Ti     0.4808   0.1329   0.4152
He362     He     0.418   0.0745   0.4197
V363     V     0.6386   0.0757   0.5157
Ti364     Ti     0.5848   0.1329   0.4808
He365     He     0.5803   0.0745   0.418
V366     V     0.4844   0.0757   0.6386
Ti367     Ti     0.5192   0.1329   0.5848
He368     He     0.582   0.0745   0.5803
B369     B     0.4419   0.2784   0.5381
S370     S     0.4387   0.2092   0.4873
B371     B     0.5381   0.2784   0.5581
S372     S     0.4873   0.2092   0.5613
B373     B     0.4619   0.2784   0.4419
S374     S     0.5127   0.2092   0.4387
B375     B     0.5581   0.2784   0.4619
S376     S     0.5613   0.2092   0.5127
B377     B     0.2784   0.5381   0.4419
S378     S     0.2092   0.4873   0.4387
B379     B     0.2784   0.5581   0.5381
S380     S     0.2092   0.5613   0.4873
B381     B     0.2784   0.4419   0.4619
S382     S     0.2092   0.4387   0.5127
B383     B     0.2784   0.4619   0.5581
S384     S     0.2092   0.5127   0.5613
B385     B     0.7216   0.4419   0.5381
S386     S     0.7908   0.4387   0.4873
B387     B     0.7216   0.5381   0.5581
S388     S     0.7908   0.4873   0.5613
B389     B     0.7216   0.4619   0.4419
S390     S     0.7908   0.5127   0.4387
B391     B     0.7216   0.5581   0.4619
S392     S     0.7908   0.5613   0.5127
B393     B     0.5381   0.4419   0.2784
S394     S     0.4873   0.4387   0.2092
B395     B     0.5581   0.5381   0.2784
S396     S     0.5613   0.4873   0.2092
B397     B     0.4419   0.4619   0.2784
S398     S     0.4387   0.5127   0.2092
B399     B     0.4619   0.5581   0.2784
S400     S     0.5127   0.5613   0.2092
B401     B     0.4419   0.5381   0.7216
S402     S     0.4387   0.4873   0.7908
B403     B     0.5381   0.5581   0.7216
S404     S     0.4873   0.5613   0.7908
B405     B     0.4619   0.4419   0.7216
S406     S     0.5127   0.4387   0.7908
B407     B     0.5581   0.4619   0.7216
S408     S     0.5613   0.5127   0.7908
Li409     Li     0.4092   0.4092   0.5908
Be410     Be     0.353   0.4736   0.5991
Be411     Be     0.4009   0.353   0.5264
Be412     Be     0.4736   0.4009   0.647
Li413     Li     0.5908   0.4092   0.4092
Be414     Be     0.5991   0.353   0.4736
Be415     Be     0.5264   0.4009   0.353
Be416     Be     0.647   0.4736   0.4009
Li417     Li     0.4092   0.4092   0.4092
Be418     Be     0.4009   0.4736   0.353
Be419     Be     0.4736   0.353   0.4009
Be420     Be     0.353   0.4009   0.4736
Li421     Li     0.4092   0.5908   0.4092
Be422     Be     0.4736   0.5991   0.353
Be423     Be     0.353   0.5264   0.4009
Be424     Be     0.4009   0.647   0.4736
Li425     Li     0.5908   0.5908   0.4092
Be426     Be     0.5991   0.5264   0.353
Be427     Be     0.647   0.5991   0.4736
Be428     Be     0.5264   0.647   0.4009
Li429     Li     0.5908   0.4092   0.5908
Be430     Be     0.5264   0.353   0.5991
Be431     Be     0.5991   0.4736   0.647
Be432     Be     0.647   0.4009   0.5264
Li433     Li     0.5908   0.5908   0.5908
Be434     Be     0.5264   0.5991   0.647
Be435     Be     0.647   0.5264   0.5991
Be436     Be     0.5991   0.647   0.5264
Li437     Li     0.4092   0.5908   0.5908
Be438     Be     0.353   0.5991   0.5264
Be439     Be     0.4736   0.647   0.5991
Be440     Be     0.4009   0.5264   0.647
B441     B     0.5381   0.7216   0.4419
S442     S     0.4873   0.7908   0.4387
B443     B     0.5581   0.7216   0.5381
S444     S     0.5613   0.7908   0.4873
B445     B     0.4419   0.7216   0.4619
S446     S     0.4387   0.7908   0.5127
B447     B     0.4619   0.7216   0.5581
S448     S     0.5127   0.7908   0.5613
loop_
_geom_bond_atom_site_label_1
_geom_bond_atom_site_label_2
_geom_bond_distance
_geom_bond_site_symmetry_2
_ccdc_geom_bond_type
Ce1     Ce4    10.006   .     S
Ce1     V111    10.005   1_556     S
Ce1     H8    9.986   1_556     S
Ce2     Ce3    10.006   .     S
Ce2     V134    10.005   1_554     S
Ce2     H7    9.986   1_554     S
Ce3     V311    10.005   .     S
Ce3     H5    9.986   .     S
Ce4     V328    10.005   .     S
Ce4     H6    9.986   .     S
H5     H8    10.009   .     S
H5     Er106    10.006   .     S
H6     H7    10.009   .     S
H6     Er107    10.006   .     S
H7     Er309    10.006   1_556     S
H7     Ce2    9.986   1_556     S
H8     Er305    10.006   1_554     S
H8     Ce1    9.986   1_554     S
Ce9     Ce12    10.006   .     S
Ce9     V157    10.005   1_655     S
Ce9     H16    9.986   1_655     S
Ce10     Ce11    10.006   .     S
Ce10     V152    10.005   1_455     S
Ce10     H15    9.986   1_455     S
Ce11     V277    10.005   .     S
Ce11     H13    9.986   .     S
Ce12     V296    10.005   .     S
Ce12     H14    9.986   .     S
H13     H16    10.009   .     S
H13     Er138    10.006   .     S
H14     H15    10.009   .     S
H14     Er141    10.006   .     S
H15     Er291    10.006   1_655     S
H15     Ce10    9.986   1_655     S
H16     Er273    10.006   1_455     S
H16     Ce9    9.986   1_455     S
Ce17     Ce20    10.006   .     S
Ce17     V93    10.005   1_565     S
Ce17     H24    9.986   1_565     S
Ce18     Ce19    10.006   .     S
Ce18     V357    10.005   .     S
Ce18     H21    9.986   .     S
Ce19     V86    10.005   1_545     S
Ce19     H23    9.986   1_545     S
Ce20     V344    10.005   .     S
Ce20     H22    9.986   .     S
H21     H24    10.009   .     S
H21     Er74    10.006   .     S
H22     H23    10.009   .     S
H22     Er75    10.006   .     S
H23     Er339    10.006   1_565     S
H23     Ce19    9.986   1_565     S
H24     Er337    10.006   1_545     S
H24     Ce17    9.986   1_545     S
Ce25     Ce28    10.006   .     S
Ce25     V160    10.005   1_556     S
Ce25     H32    9.986   1_556     S
Ce26     Ce27    10.006   .     S
Ce26     V149    10.005   1_554     S
Ce26     H31    9.986   1_554     S
Ce27     V317    10.005   .     S
Ce27     H29    9.986   .     S
Ce28     V331    10.005   .     S
Ce28     H30    9.986   .     S
H29     H32    10.009   .     S
H29     Er142    10.006   .     S
H30     H31    10.009   .     S
H30     Er155    10.006   .     S
H31     Er324    10.006   1_556     S
H31     Ce26    9.986   1_556     S
H32     Er310    10.006   1_554     S
H32     Ce25    9.986   1_554     S
Ce33     Ce35    10.006   .     S
Ce33     V143    10.005   1_556     S
Ce33     H40    9.986   1_556     S
Ce34     Ce36    10.006   .     S
Ce34     V166    10.005   1_554     S
Ce34     H39    9.986   1_554     S
Ce35     V325    10.005   .     S
Ce35     H38    9.986   .     S
Ce36     V314    10.005   .     S
Ce36     H37    9.986   .     S
H37     H40    10.009   .     S
H37     Er137    10.006   .     S
H38     H39    10.009   .     S
H38     Er139    10.006   .     S
H39     Er306    10.006   1_556     S
H39     Ce34    9.986   1_556     S
H40     Er307    10.006   1_554     S
H40     Ce33    9.986   1_554     S
Ce41     Ce44    10.006   .     S
Ce41     V114    10.005   1_565     S
Ce41     H48    9.986   1_565     S
Ce42     Ce43    10.006   .     S
Ce42     V131    10.005   1_545     S
Ce42     H47    9.986   1_545     S
Ce43     V366    10.005   .     S
Ce43     H45    9.986   .     S
Ce44     V350    10.005   .     S
Ce44     H46    9.986   .     S
H45     H48    10.009   .     S
H45     Er108    10.006   .     S
H46     H47    10.009   .     S
H46     Er123    10.006   .     S
H47     Er354    10.006   1_565     S
H47     Ce42    9.986   1_565     S
H48     Er340    10.006   1_545     S
H48     Ce41    9.986   1_545     S
Ce49     Ce51    10.006   .     S
Ce49     V125    10.005   1_565     S
Ce49     H55    9.986   1_565     S
Ce50     Ce52    10.006   .     S
Ce50     V120    10.005   1_545     S
Ce50     H56    9.986   1_545     S
Ce51     V341    10.005   .     S
Ce51     H54    9.986   .     S
Ce52     V360    10.005   .     S
Ce52     H53    9.986   .     S
H53     H55    10.009   .     S
H53     Er105    10.006   .     S
H54     H56    10.009   .     S
H54     Er109    10.006   .     S
H55     Er355    10.006   1_545     S
H55     Ce49    9.986   1_545     S
H56     Er338    10.006   1_565     S
H56     Ce50    9.986   1_565     S
Ce57     Ce60    10.006   .     S
Ce57     V96    10.005   1_655     S
Ce57     H64    9.986   1_655     S
Ce58     Ce59    10.006   .     S
Ce58     V83    10.005   1_455     S
Ce58     H63    9.986   1_455     S
Ce59     V283    10.005   .     S
Ce59     H61    9.986   .     S
Ce60     V299    10.005   .     S
Ce60     H62    9.986   .     S
H61     H64    10.009   .     S
H61     Er76    10.006   .     S
H62     H63    10.009   .     S
H62     Er89    10.006   .     S
H63     Er290    10.006   1_655     S
H63     Ce58    9.986   1_655     S
H64     Er292    10.006   1_455     S
H64     Ce57    9.986   1_455     S
Ce65     Ce66    10.006   .     S
Ce65     V77    10.005   1_655     S
Ce65     H72    9.986   1_655     S
Ce66     V293    10.005   .     S
Ce66     H70    9.986   .     S
Ce67     Ce68    10.006   .     S
Ce67     V102    10.005   1_455     S
Ce67     H71    9.986   1_455     S
Ce68     V280    10.005   .     S
Ce68     H69    9.986   .     S
H69     H72    10.009   .     S
H69     Er73    10.006   .     S
H70     H71    10.009   .     S
H70     Er91    10.006   .     S
H71     Er274    10.006   1_655     S
H71     Ce67    9.986   1_655     S
H72     Er275    10.006   1_455     S
H72     Ce65    9.986   1_455     S
Er73     Er74    9.998   .     S
Er73     He104    10.0   .     S
Er74     He88    10.0   .     S
Er75     Er76    9.998   .     S
Er75     He95    10.0   .     S
Er76     He85    10.0   .     S
V77     Ce65    10.005   1_455     S
V77     Ti78    9.996   1_455     S
V77     He88    10.001   .     S
Ti78     V77    9.996   1_655     S
Ti78     He79    10.0   .     S
Ti78     S186    10.005   1_655     S
He79     V80    10.001   .     S
He79     Er91    10.0   .     S
V80     Ti81    9.996   1_545     S
V80     Ce265    10.005   1_545     S
Ti81     V80    9.996   1_565     S
Ti81     He82    10.0   .     S
Ti81     S190    10.005   1_565     S
He82     V83    10.001   .     S
He82     Er90    10.0   .     S
V83     Ce58    10.005   1_655     S
V83     Ti84    9.996   1_655     S
Ti84     V83    9.996   1_455     S
Ti84     He85    10.0   .     S
Ti84     S192    10.005   1_455     S
He85     V86    10.001   .     S
V86     Ce19    10.005   1_565     S
V86     Ti87    9.996   1_565     S
Ti87     V86    9.996   1_545     S
Ti87     He88    10.0   .     S
Ti87     S188    10.005   1_545     S
Er89     Er90    9.998   .     S
Er89     He98    10.0   .     S
Er90     H270    10.006   .     S
Er91     Er92    9.998   .     S
Er92     He101    10.0   .     S
Er92     H269    10.006   .     S
V93     Ce17    10.005   1_545     S
V93     Ti94    9.996   1_545     S
V93     He104    10.001   .     S
Ti94     V93    9.996   1_565     S
Ti94     He95    10.0   .     S
Ti94     S202    10.005   1_565     S
He95     V96    10.001   .     S
V96     Ce57    10.005   1_455     S
V96     Ti97    9.996   1_455     S
Ti97     V96    9.996   1_655     S
Ti97     He98    10.0   .     S
Ti97     S206    10.005   1_655     S
He98     V99    10.001   .     S
V99     Ti100    9.996   1_565     S
V99     Ce266    10.005   1_565     S
Ti100     V99    9.996   1_545     S
Ti100     He101    10.0   .     S
Ti100     S208    10.005   1_545     S
He101     V102    10.001   .     S
V102     Ce67    10.005   1_655     S
V102     Ti103    9.996   1_655     S
Ti103     V102    9.996   1_455     S
Ti103     He104    10.0   .     S
Ti103     S204    10.005   1_455     S
Er105     Er106    9.998   .     S
Er105     He122    10.0   .     S
Er106     He136    10.0   .     S
Er107     Er108    9.998   .     S
Er107     He113    10.0   .     S
Er108     He133    10.0   .     S
Er109     Er110    9.998   .     S
Er109     He127    10.0   .     S
Er110     He119    10.0   .     S
Er110     H263    10.006   .     S
V111     Ce1    10.005   1_554     S
V111     Ti112    9.996   1_554     S
V111     He122    10.001   .     S
Ti112     V111    9.996   1_556     S
Ti112     He113    10.0   .     S
Ti112     S194    10.005   1_556     S
He113     V114    10.001   .     S
V114     Ce41    10.005   1_545     S
V114     Ti115    9.996   1_545     S
Ti115     V114    9.996   1_565     S
Ti115     He116    10.0   .     S
Ti115     S198    10.005   1_565     S
He116     V117    10.001   .     S
He116     Er123    10.0   .     S
V117     Ti118    9.996   1_556     S
V117     Ce258    10.005   1_556     S
Ti118     V117    9.996   1_554     S
Ti118     He119    10.0   .     S
Ti118     S200    10.005   1_554     S
He119     V120    10.001   .     S
V120     Ce50    10.005   1_565     S
V120     Ti121    9.996   1_565     S
Ti121     V120    9.996   1_545     S
Ti121     He122    10.0   .     S
Ti121     S196    10.005   1_545     S
Er123     Er124    9.998   .     S
Er124     He130    10.0   .     S
Er124     H262    10.006   .     S
V125     Ce49    10.005   1_545     S
V125     Ti126    9.996   1_545     S
V125     He136    10.001   .     S
Ti126     V125    9.996   1_565     S
Ti126     He127    10.0   .     S
Ti126     S170    10.005   1_565     S
He127     V128    10.001   .     S
V128     Ti129    9.996   1_554     S
V128     Ce257    10.005   1_554     S
Ti129     V128    9.996   1_556     S
Ti129     He130    10.0   .     S
Ti129     S174    10.005   1_556     S
He130     V131    10.001   .     S
V131     Ce42    10.005   1_565     S
V131     Ti132    9.996   1_565     S
Ti132     V131    9.996   1_545     S
Ti132     He133    10.0   .     S
Ti132     S176    10.005   1_545     S
He133     V134    10.001   .     S
V134     Ce2    10.005   1_556     S
V134     Ti135    9.996   1_556     S
Ti135     V134    9.996   1_554     S
Ti135     He136    10.0   .     S
Ti135     S172    10.005   1_554     S
Er137     Er138    9.998   .     S
Er137     He168    10.0   .     S
Er138     He154    10.0   .     S
Er139     Er140    9.998   .     S
Er139     He145    10.0   .     S
Er140     He165    10.0   .     S
Er140     H254    10.006   .     S
Er141     Er142    9.998   .     S
Er141     He159    10.0   .     S
Er142     He151    10.0   .     S
V143     Ce33    10.005   1_554     S
V143     Ti144    9.996   1_554     S
V143     He154    10.001   .     S
Ti144     V143    9.996   1_556     S
Ti144     He145    10.0   .     S
Ti144     S178    10.005   1_556     S
He145     V146    10.001   .     S
V146     Ti147    9.996   1_455     S
V146     Ce249    10.005   1_455     S
Ti147     V146    9.996   1_655     S
Ti147     He148    10.0   .     S
Ti147     S182    10.005   1_655     S
He148     V149    10.001   .     S
He148     Er156    10.0   .     S
V149     Ce26    10.005   1_556     S
V149     Ti150    9.996   1_556     S
Ti150     V149    9.996   1_554     S
Ti150     He151    10.0   .     S
Ti150     S184    10.005   1_554     S
He151     V152    10.001   .     S
V152     Ce10    10.005   1_655     S
V152     Ti153    9.996   1_655     S
Ti153     V152    9.996   1_455     S
Ti153     He154    10.0   .     S
Ti153     S180    10.005   1_455     S
Er155     Er156    9.998   .     S
Er155     He162    10.0   .     S
Er156     H255    10.006   .     S
V157     Ce9    10.005   1_455     S
V157     Ti158    9.996   1_455     S
V157     He168    10.001   .     S
Ti158     V157    9.996   1_655     S
Ti158     He159    10.0   .     S
Ti158     S242    10.005   1_655     S
He159     V160    10.001   .     S
V160     Ce25    10.005   1_554     S
V160     Ti161    9.996   1_554     S
Ti161     V160    9.996   1_556     S
Ti161     He162    10.0   .     S
Ti161     S246    10.005   1_556     S
He162     V163    10.001   .     S
V163     Ti164    9.996   1_655     S
V163     Ce250    10.005   1_655     S
Ti164     V163    9.996   1_455     S
Ti164     He165    10.0   .     S
Ti164     S248    10.005   1_455     S
He165     V166    10.001   .     S
V166     Ce34    10.005   1_556     S
V166     Ti167    9.996   1_556     S
Ti167     V166    9.996   1_554     S
Ti167     He168    10.0   .     S
Ti167     S244    10.005   1_554     S
B169     S170    9.991   1_565     S
B169     S174    10.003   .     S
B169     Be215    10.004   .     S
S170     Ti126    10.005   1_545     S
S170     B169    9.991   1_545     S
S170     B171    10.003   .     S
B171     S172    9.991   1_554     S
B171     Be236    10.004   .     S
S172     Ti135    10.005   1_556     S
S172     B171    9.991   1_556     S
S172     B175    10.003   .     S
B173     S174    9.991   1_556     S
B173     S176    10.003   .     S
B173     Be224    10.004   .     S
S174     Ti129    10.005   1_554     S
S174     B173    9.991   1_554     S
B175     S176    9.991   1_545     S
B175     Be228    10.004   .     S
S176     Ti132    10.005   1_565     S
S176     B175    9.991   1_565     S
B177     S178    9.991   1_556     S
B177     S182    10.003   .     S
B177     Be219    10.004   .     S
S178     Ti144    10.005   1_554     S
S178     B177    9.991   1_554     S
S178     B179    10.003   .     S
B179     S180    9.991   1_455     S
B179     Be212    10.004   .     S
S180     Ti153    10.005   1_655     S
S180     B179    9.991   1_655     S
S180     B183    10.003   .     S
B181     S182    9.991   1_655     S
B181     S184    10.003   .     S
B181     Be223    10.004   .     S
S182     Ti147    10.005   1_455     S
S182     B181    9.991   1_455     S
B183     S184    9.991   1_554     S
B183     Be216    10.004   .     S
S184     Ti150    10.005   1_556     S
S184     B183    9.991   1_556     S
B185     S186    9.991   1_655     S
B185     S190    10.003   .     S
B185     Be227    10.004   .     S
S186     Ti78    10.005   1_455     S
S186     B185    9.991   1_455     S
S186     B187    10.003   .     S
B187     S188    9.991   1_545     S
B187     Be232    10.004   .     S
S188     Ti87    10.005   1_565     S
S188     B187    9.991   1_565     S
S188     B191    10.003   .     S
B189     S190    9.991   1_565     S
B189     S192    10.003   .     S
B189     Be222    10.004   .     S
S190     Ti81    10.005   1_545     S
S190     B189    9.991   1_545     S
B191     S192    9.991   1_455     S
B191     Be220    10.004   .     S
S192     Ti84    10.005   1_655     S
S192     B191    9.991   1_655     S
B193     S194    9.991   1_556     S
B193     S198    10.003   .     S
B193     Be230    10.004   .     S
S194     Ti112    10.005   1_554     S
S194     B193    9.991   1_554     S
S194     B195    10.003   .     S
B195     S196    9.991   1_545     S
B195     Be239    10.004   .     S
S196     Ti121    10.005   1_565     S
S196     B195    9.991   1_565     S
S196     B199    10.003   .     S
B197     S198    9.991   1_565     S
B197     S200    10.003   .     S
B197     Be218    10.004   .     S
S198     Ti115    10.005   1_545     S
S198     B197    9.991   1_545     S
B199     S200    9.991   1_554     S
B199     Be211    10.004   .     S
S200     Ti118    10.005   1_556     S
S200     B199    9.991   1_556     S
B201     S202    9.991   1_565     S
B201     S206    10.003   .     S
B201     Be210    10.004   .     S
S202     Ti94    10.005   1_545     S
S202     B201    9.991   1_545     S
S202     B203    10.003   .     S
B203     S204    9.991   1_455     S
B203     Be238    10.004   .     S
S204     Ti103    10.005   1_655     S
S204     B203    9.991   1_655     S
S204     B207    10.003   .     S
B205     S206    9.991   1_655     S
B205     S208    10.003   .     S
B205     Be214    10.004   .     S
S206     Ti97    10.005   1_455     S
S206     B205    9.991   1_455     S
B207     S208    9.991   1_545     S
B207     Be235    10.004   .     S
S208     Ti100    10.005   1_565     S
S208     B207    9.991   1_565     S
Li209     Be212    9.996   .     S
Li209     Be210    9.996   .     S
Li209     Be211    9.996   .     S
Be210     Be239    10.004   1_565     S
Be211     Be219    10.004   1_554     S
Be212     Be214    10.004   1_455     S
Li213     Be215    9.996   .     S
Li213     Be216    9.996   .     S
Li213     Be214    9.996   .     S
Be214     Be212    10.004   1_655     S
Be215     Be235    10.004   1_565     S
Be216     Be224    10.004   1_554     S
Li217     Be219    9.996   .     S
Li217     Be220    9.996   .     S
Li217     Be218    9.996   .     S
Be218     Be232    10.004   1_565     S
Be219     Be211    10.004   1_556     S
Be220     Be223    10.004   1_455     S
Li221     Be223    9.996   .     S
Li221     Be222    9.996   .     S
Li221     Be224    9.996   .     S
Be222     Be228    10.004   1_565     S
Be223     Be220    10.004   1_655     S
Be224     Be216    10.004   1_556     S
Li225     Be227    9.996   .     S
Li225     Be228    9.996   .     S
Li225     Be226    9.996   .     S
Be226     Be236    10.004   1_556     S
Be226     B245    10.004   .     S
Be227     Be231    10.004   1_655     S
Be228     Be222    10.004   1_545     S
Li229     Be232    9.996   .     S
Li229     Be230    9.996   .     S
Li229     Be231    9.996   .     S
Be230     Be240    10.004   1_556     S
Be231     Be227    10.004   1_455     S
Be231     B247    10.004   .     S
Be232     Be218    10.004   1_545     S
Li233     Be236    9.996   .     S
Li233     Be234    9.996   .     S
Li233     Be235    9.996   .     S
Be234     Be238    10.004   1_655     S
Be234     B241    10.004   .     S
Be235     Be215    10.004   1_545     S
Be236     Be226    10.004   1_554     S
Li237     Be238    9.996   .     S
Li237     Be239    9.996   .     S
Li237     Be240    9.996   .     S
Be238     Be234    10.004   1_455     S
Be239     Be210    10.004   1_545     S
Be240     Be230    10.004   1_554     S
Be240     B243    10.004   .     S
B241     S242    9.991   1_655     S
B241     S246    10.003   .     S
S242     Ti158    10.005   1_455     S
S242     B241    9.991   1_455     S
S242     B243    10.003   .     S
B243     S244    9.991   1_554     S
S244     Ti167    10.005   1_556     S
S244     B243    9.991   1_556     S
S244     B247    10.003   .     S
B245     S246    9.991   1_556     S
B245     S248    10.003   .     S
S246     Ti161    10.005   1_554     S
S246     B245    9.991   1_554     S
B247     S248    9.991   1_455     S
S248     Ti164    10.005   1_655     S
S248     B247    9.991   1_655     S
Ce249     Ce251    10.006   .     S
Ce249     V146    10.005   1_655     S
Ce249     H256    9.986   1_655     S
Ce250     Ce252    10.006   .     S
Ce250     V163    10.005   1_455     S
Ce250     H253    9.986   1_455     S
Ce251     V302    10.005   .     S
Ce251     H255    9.986   .     S
Ce252     V286    10.005   .     S
Ce252     H254    9.986   .     S
H253     H255    10.009   .     S
H253     Er276    10.006   1_655     S
H253     Ce250    9.986   1_655     S
H254     H256    10.009   .     S
H256     Er289    10.006   1_455     S
H256     Ce249    9.986   1_455     S
Ce257     Ce259    10.006   .     S
Ce257     V128    10.005   1_556     S
Ce257     H264    9.986   1_556     S
Ce258     Ce260    10.006   .     S
Ce258     V117    10.005   1_554     S
Ce258     H261    9.986   1_554     S
Ce259     V334    10.005   .     S
Ce259     H262    9.986   .     S
Ce260     V320    10.005   .     S
Ce260     H263    9.986   .     S
H261     H262    10.009   .     S
H261     Er308    10.006   1_556     S
H261     Ce258    9.986   1_556     S
H263     H264    10.009   .     S
H264     Er323    10.006   1_554     S
H264     Ce257    9.986   1_554     S
Ce265     Ce267    10.006   .     S
Ce265     V80    10.005   1_565     S
Ce265     H272    9.986   1_565     S
Ce266     Ce268    10.006   .     S
Ce266     V99    10.005   1_545     S
Ce266     H271    9.986   1_545     S
Ce267     V347    10.005   .     S
Ce267     H270    9.986   .     S
Ce268     V363    10.005   .     S
Ce268     H269    9.986   .     S
H269     H272    10.009   .     S
H270     H271    10.009   .     S
H271     Er356    10.006   1_565     S
H271     Ce266    9.986   1_565     S
H272     Er353    10.006   1_545     S
H272     Ce265    9.986   1_545     S
Er273     H16    10.006   1_655     S
Er273     Er274    9.998   1_655     S
Er273     He298    10.0   .     S
Er274     H71    10.006   1_455     S
Er274     Er273    9.998   1_455     S
Er274     He282    10.0   .     S
Er275     H72    10.006   1_655     S
Er275     Er276    9.998   1_655     S
Er275     He295    10.0   .     S
Er276     H253    10.006   1_455     S
Er276     Er275    9.998   1_455     S
Er276     He288    10.0   .     S
V277     Ti278    9.996   .     S
V277     He282    10.001   .     S
Ti278     He279    10.0   .     S
Ti278     S378    10.005   .     S
He279     V283    10.001   .     S
He279     Er291    10.0   .     S
V280     Ti281    9.996   .     S
V280     He288    10.001   .     S
Ti281     He282    10.0   .     S
Ti281     S382    10.005   .     S
V283     Ti284    9.996   .     S
Ti284     He285    10.0   .     S
Ti284     S380    10.005   .     S
He285     V286    10.001   .     S
He285     Er290    10.0   .     S
V286     Ti287    9.996   .     S
Ti287     He288    10.0   .     S
Ti287     S384    10.005   .     S
Er289     H256    10.006   1_655     S
Er289     Er290    9.998   1_655     S
Er289     He304    10.0   .     S
Er290     H63    10.006   1_455     S
Er290     Er289    9.998   1_455     S
Er291     H15    10.006   1_455     S
Er291     Er292    9.998   1_455     S
Er292     H64    10.006   1_655     S
Er292     Er291    9.998   1_655     S
Er292     He301    10.0   .     S
V293     Ti294    9.996   .     S
V293     He298    10.001   .     S
Ti294     He295    10.0   .     S
Ti294     S386    10.005   .     S
He295     V302    10.001   .     S
V296     Ti297    9.996   .     S
V296     He301    10.001   .     S
Ti297     He298    10.0   .     S
Ti297     S390    10.005   .     S
V299     Ti300    9.996   .     S
V299     He304    10.001   .     S
Ti300     He301    10.0   .     S
Ti300     S392    10.005   .     S
V302     Ti303    9.996   .     S
Ti303     He304    10.0   .     S
Ti303     S388    10.005   .     S
Er305     H8    10.006   1_556     S
Er305     Er306    9.998   1_556     S
Er305     He330    10.0   .     S
Er306     H39    10.006   1_554     S
Er306     Er305    9.998   1_554     S
Er306     He316    10.0   .     S
Er307     H40    10.006   1_556     S
Er307     Er308    9.998   1_556     S
Er307     He327    10.0   .     S
Er308     H261    10.006   1_554     S
Er308     Er307    9.998   1_554     S
Er308     He322    10.0   .     S
Er309     H7    10.006   1_554     S
Er309     Er310    9.998   1_554     S
Er309     He313    10.0   .     S
Er310     H32    10.006   1_556     S
Er310     Er309    9.998   1_556     S
Er310     He333    10.0   .     S
V311     Ti312    9.996   .     S
V311     He316    10.001   .     S
Ti312     He313    10.0   .     S
Ti312     S394    10.005   .     S
He313     V317    10.001   .     S
V314     Ti315    9.996   .     S
V314     He322    10.001   .     S
Ti315     He316    10.0   .     S
Ti315     S398    10.005   .     S
V317     Ti318    9.996   .     S
Ti318     He319    10.0   .     S
Ti318     S396    10.005   .     S
He319     V320    10.001   .     S
He319     Er324    10.0   .     S
V320     Ti321    9.996   .     S
Ti321     He322    10.0   .     S
Ti321     S400    10.005   .     S
Er323     H264    10.006   1_556     S
Er323     Er324    9.998   1_556     S
Er323     He336    10.0   .     S
Er324     H31    10.006   1_554     S
Er324     Er323    9.998   1_554     S
V325     Ti326    9.996   .     S
V325     He330    10.001   .     S
Ti326     He327    10.0   .     S
Ti326     S402    10.005   .     S
He327     V334    10.001   .     S
V328     Ti329    9.996   .     S
V328     He333    10.001   .     S
Ti329     He330    10.0   .     S
Ti329     S406    10.005   .     S
V331     Ti332    9.996   .     S
V331     He336    10.001   .     S
Ti332     He333    10.0   .     S
Ti332     S408    10.005   .     S
V334     Ti335    9.996   .     S
Ti335     He336    10.0   .     S
Ti335     S404    10.005   .     S
Er337     H24    10.006   1_565     S
Er337     Er338    9.998   1_565     S
Er337     He346    10.0   .     S
Er338     H56    10.006   1_545     S
Er338     Er337    9.998   1_545     S
Er338     He362    10.0   .     S
Er339     H23    10.006   1_545     S
Er339     Er340    9.998   1_545     S
Er339     He359    10.0   .     S
Er340     H48    10.006   1_565     S
Er340     Er339    9.998   1_565     S
Er340     He352    10.0   .     S
V341     Ti342    9.996   .     S
V341     He346    10.001   .     S
Ti342     He343    10.0   .     S
Ti342     S442    10.005   .     S
He343     V347    10.001   .     S
He343     Er355    10.0   .     S
V344     Ti345    9.996   .     S
V344     He352    10.001   .     S
Ti345     He346    10.0   .     S
Ti345     S446    10.005   .     S
V347     Ti348    9.996   .     S
Ti348     He349    10.0   .     S
Ti348     S444    10.005   .     S
He349     V350    10.001   .     S
He349     Er353    10.0   .     S
V350     Ti351    9.996   .     S
Ti351     He352    10.0   .     S
Ti351     S448    10.005   .     S
Er353     H272    10.006   1_565     S
Er353     Er354    9.998   1_565     S
Er354     H47    10.006   1_545     S
Er354     Er353    9.998   1_545     S
Er354     He368    10.0   .     S
Er355     H55    10.006   1_565     S
Er355     Er356    9.998   1_565     S
Er356     H271    10.006   1_545     S
Er356     Er355    9.998   1_545     S
Er356     He365    10.0   .     S
V357     Ti358    9.996   .     S
V357     He362    10.001   .     S
Ti358     He359    10.0   .     S
Ti358     S370    10.005   .     S
He359     V366    10.001   .     S
V360     Ti361    9.996   .     S
V360     He365    10.001   .     S
Ti361     He362    10.0   .     S
Ti361     S374    10.005   .     S
V363     Ti364    9.996   .     S
V363     He368    10.001   .     S
Ti364     He365    10.0   .     S
Ti364     S376    10.005   .     S
V366     Ti367    9.996   .     S
Ti367     He368    10.0   .     S
Ti367     S372    10.005   .     S
B369     S370    9.991   .     S
B369     S372    10.003   .     S
B369     Be411    10.004   .     S
S370     B373    10.003   .     S
B371     S372    9.991   .     S
B371     S376    10.003   .     S
B371     Be430    10.004   .     S
B373     S374    9.991   .     S
B373     Be419    10.004   .     S
S374     B375    10.003   .     S
B375     S376    9.991   .     S
B375     Be414    10.004   .     S
B377     S378    9.991   .     S
B377     S380    10.003   .     S
B377     Be423    10.004   .     S
S378     B381    10.003   .     S
B379     S380    9.991   .     S
B379     S384    10.003   .     S
B379     Be438    10.004   .     S
B381     S382    9.991   .     S
B381     Be420    10.004   .     S
S382     B383    10.003   .     S
B383     S384    9.991   .     S
B383     Be410    10.004   .     S
B385     S386    9.991   .     S
B385     S388    10.003   .     S
B385     Be432    10.004   .     S
S386     B389    10.003   .     S
B387     S388    9.991   .     S
B387     S392    10.003   .     S
B387     Be435    10.004   .     S
B389     S390    9.991   .     S
B389     Be416    10.004   .     S
S390     B391    10.003   .     S
B391     S392    9.991   .     S
B391     Be427    10.004   .     S
B393     S394    9.991   .     S
B393     S396    10.003   .     S
B393     Be415    10.004   .     S
S394     B397    10.003   .     S
B395     S396    9.991   .     S
B395     S400    10.003   .     S
B395     Be426    10.004   .     S
B397     S398    9.991   .     S
B397     Be418    10.004   .     S
S398     B399    10.003   .     S
B399     S400    9.991   .     S
B399     Be422    10.004   .     S
B401     S402    9.991   .     S
B401     S404    10.003   .     S
B401     Be440    10.004   .     S
S402     B405    10.003   .     S
B403     S404    9.991   .     S
B403     S408    10.003   .     S
B403     Be434    10.004   .     S
B405     S406    9.991   .     S
B405     Be412    10.004   .     S
S406     B407    10.003   .     S
B407     S408    9.991   .     S
B407     Be431    10.004   .     S
Li409     Be411    9.996   .     S
Li409     Be412    9.996   .     S
Li409     Be410    9.996   .     S
Be410     Be440    10.004   .     S
Be411     Be420    10.004   .     S
Be412     Be430    10.004   .     S
Li413     Be415    9.996   .     S
Li413     Be416    9.996   .     S
Li413     Be414    9.996   .     S
Be414     Be432    10.004   .     S
Be415     Be419    10.004   .     S
Be416     Be426    10.004   .     S
Li417     Be418    9.996   .     S
Li417     Be419    9.996   .     S
Li417     Be420    9.996   .     S
Be418     Be423    10.004   .     S
Li421     Be423    9.996   .     S
Li421     Be424    9.996   .     S
Li421     Be422    9.996   .     S
Be422     Be428    10.004   .     S
Be424     Be438    10.004   .     S
Be424     B445    10.004   .     S
Li425     Be428    9.996   .     S
Li425     Be426    9.996   .     S
Li425     Be427    9.996   .     S
Be427     Be436    10.004   .     S
Be428     B441    10.004   .     S
Li429     Be432    9.996   .     S
Li429     Be430    9.996   .     S
Li429     Be431    9.996   .     S
Be431     Be435    10.004   .     S
Li433     Be435    9.996   .     S
Li433     Be434    9.996   .     S
Li433     Be436    9.996   .     S
Be434     Be439    10.004   .     S
Be436     B443    10.004   .     S
Li437     Be440    9.996   .     S
Li437     Be438    9.996   .     S
Li437     Be439    9.996   .     S
Be439     B447    10.004   .     S
B441     S442    9.991   .     S
B441     S444    10.003   .     S
S442     B445    10.003   .     S
B443     S444    9.991   .     S
B443     S448    10.003   .     S
B445     S446    9.991   .     S
S446     B447    10.003   .     S
B447     S448    9.991   .     S
