data_kgt
_audit_creation_date              2020-02-02
_audit_creation_method            'Pymatgen'
_symmetry_space_group_name_H-M    'P1'
_symmetry_Int_Tables_number       1
loop_
_symmetry_equiv_pos_as_xyz
  x,y,z
_cell_length_a                    119.5091
_cell_length_b                    119.5091
_cell_length_c                    119.5091
_cell_angle_alpha                 90.0
_cell_angle_beta                 90.0
_cell_angle_gamma                 90.0
loop_
_atom_site_label
_atom_site_type_symbol
_atom_site_fract_x
_atom_site_fract_y
_atom_site_fract_z
Ti1     Ti     0.9181   0.9181   0.9181
V2     V     0.9793   0.9128   0.8613
V3     V     0.0207   0.8613   0.9128
V4     V     0.1387   0.9128   0.9793
V5     V     0.0872   0.8613   0.0207
Ti6     Ti     0.0819   0.9181   0.9181
V7     V     0.8613   0.9793   0.9128
V8     V     0.9128   0.0207   0.8613
V9     V     0.9793   0.1387   0.9128
V10     V     0.0207   0.0872   0.8613
Ti11     Ti     0.9181   0.0819   0.9181
V12     V     0.0872   0.9793   0.8613
V13     V     0.1387   0.0207   0.9128
Ti14     Ti     0.0819   0.0819   0.9181
V15     V     0.8613   0.0872   0.9793
V16     V     0.9128   0.1387   0.0207
Ti17     Ti     0.9181   0.0819   0.0819
V18     V     0.9793   0.8613   0.0872
V19     V     0.0207   0.9128   0.1387
Ti20     Ti     0.0819   0.9181   0.0819
V21     V     0.0872   0.1387   0.9793
V22     V     0.1387   0.0872   0.0207
V23     V     0.1387   0.9793   0.0872
V24     V     0.0872   0.0207   0.1387
V25     V     0.9793   0.0872   0.1387
V26     V     0.0207   0.1387   0.0872
Ti27     Ti     0.0819   0.0819   0.0819
V28     V     0.9128   0.8613   0.9793
V29     V     0.8613   0.9128   0.0207
V30     V     0.9128   0.9793   0.1387
V31     V     0.8613   0.0207   0.0872
Ti32     Ti     0.9181   0.9181   0.0819
V33     V     0.3613   0.5207   0.5873
V34     V     0.4128   0.4793   0.6387
Ti35     Ti     0.4181   0.5819   0.5819
V36     V     0.5873   0.3613   0.5207
V37     V     0.6387   0.4128   0.4793
Ti38     Ti     0.5819   0.4181   0.5819
V39     V     0.4793   0.3613   0.5873
V40     V     0.5207   0.4128   0.6387
V41     V     0.4128   0.3613   0.4793
V42     V     0.3613   0.4128   0.5207
Ti43     Ti     0.4181   0.4181   0.5819
V44     V     0.3613   0.5873   0.4793
V45     V     0.4128   0.6387   0.5207
V46     V     0.3613   0.4793   0.4128
V47     V     0.4128   0.5207   0.3613
Ti48     Ti     0.4181   0.5819   0.4181
Ti49     Ti     0.4181   0.4181   0.4181
V50     V     0.5207   0.3613   0.4128
V51     V     0.4793   0.4128   0.3613
Ti52     Ti     0.5819   0.4181   0.4181
V53     V     0.5873   0.4793   0.3613
V54     V     0.6387   0.5207   0.4128
V55     V     0.5207   0.5873   0.3613
V56     V     0.4793   0.6387   0.4128
Ti57     Ti     0.5819   0.5819   0.4181
V58     V     0.6387   0.5873   0.5207
V59     V     0.5873   0.6387   0.4793
V60     V     0.5207   0.6387   0.5873
V61     V     0.4793   0.5873   0.6387
V62     V     0.6387   0.4793   0.5873
V63     V     0.5873   0.5207   0.6387
Ti64     Ti     0.5819   0.5819   0.5819
B65     B     0.5551   0.7793   0.4602
Er66     Er     0.563   0.7127   0.5101
B67     B     0.4602   0.7793   0.4449
Er68     Er     0.5101   0.7127   0.437
B69     B     0.5398   0.7793   0.5551
Er70     Er     0.4899   0.7127   0.563
B71     B     0.4449   0.7793   0.5398
Er72     Er     0.437   0.7127   0.4899
B73     B     0.2207   0.5551   0.4602
Er74     Er     0.2873   0.563   0.5101
B75     B     0.2207   0.4602   0.4449
Er76     Er     0.2873   0.5101   0.437
B77     B     0.2207   0.5398   0.5551
Er78     Er     0.2873   0.4899   0.563
B79     B     0.2207   0.4449   0.5398
Er80     Er     0.2873   0.437   0.4899
B81     B     0.5551   0.4602   0.2207
Er82     Er     0.563   0.5101   0.2873
B83     B     0.4602   0.4449   0.2207
Er84     Er     0.5101   0.437   0.2873
B85     B     0.5398   0.5551   0.2207
Er86     Er     0.4899   0.563   0.2873
B87     B     0.4449   0.5398   0.2207
Er88     Er     0.437   0.4899   0.2873
B89     B     0.4602   0.5551   0.7793
Er90     Er     0.5101   0.563   0.7127
B91     B     0.4449   0.4602   0.7793
Er92     Er     0.437   0.5101   0.7127
B93     B     0.5551   0.5398   0.7793
Er94     Er     0.563   0.4899   0.7127
B95     B     0.5398   0.4449   0.7793
Er96     Er     0.4899   0.437   0.7127
B97     B     0.7793   0.4602   0.5551
Er98     Er     0.7127   0.5101   0.563
B99     B     0.7793   0.4449   0.4602
Er100     Er     0.7127   0.437   0.5101
B101     B     0.7793   0.5551   0.5398
Er102     Er     0.7127   0.563   0.4899
B103     B     0.7793   0.5398   0.4449
Er104     Er     0.7127   0.4899   0.437
B105     B     0.4602   0.2207   0.5551
Er106     Er     0.5101   0.2873   0.563
B107     B     0.4449   0.2207   0.4602
Er108     Er     0.437   0.2873   0.5101
B109     B     0.5551   0.2207   0.5398
Er110     Er     0.563   0.2873   0.4899
B111     B     0.5398   0.2207   0.4449
Er112     Er     0.4899   0.2873   0.437
B113     B     0.0398   0.9449   0.2793
Er114     Er     0.9899   0.937   0.2127
B115     B     0.0551   0.0398   0.2793
Er116     Er     0.063   0.9899   0.2127
B117     B     0.9602   0.0551   0.2793
Er118     Er     0.0101   0.063   0.2127
B119     B     0.9449   0.9602   0.2793
Er120     Er     0.937   0.0101   0.2127
B121     B     0.2793   0.0398   0.9449
Er122     Er     0.2127   0.9899   0.937
B123     B     0.2793   0.0551   0.0398
Er124     Er     0.2127   0.063   0.9899
B125     B     0.2793   0.9602   0.0551
Er126     Er     0.2127   0.0101   0.063
B127     B     0.2793   0.9449   0.9602
Er128     Er     0.2127   0.937   0.0101
B129     B     0.9449   0.2793   0.0398
Er130     Er     0.937   0.2127   0.9899
B131     B     0.0398   0.2793   0.0551
Er132     Er     0.9899   0.2127   0.063
B133     B     0.0551   0.2793   0.9602
Er134     Er     0.063   0.2127   0.0101
B135     B     0.9602   0.2793   0.9449
Er136     Er     0.0101   0.2127   0.937
B137     B     0.9449   0.0398   0.7207
Er138     Er     0.937   0.9899   0.7873
B139     B     0.0398   0.0551   0.7207
Er140     Er     0.9899   0.063   0.7873
B141     B     0.0551   0.9602   0.7207
Er142     Er     0.063   0.0101   0.7873
B143     B     0.9602   0.9449   0.7207
Er144     Er     0.0101   0.937   0.7873
B145     B     0.0398   0.7207   0.9449
Er146     Er     0.9899   0.7873   0.937
B147     B     0.0551   0.7207   0.0398
Er148     Er     0.063   0.7873   0.9899
B149     B     0.9602   0.7207   0.0551
Er150     Er     0.0101   0.7873   0.063
B151     B     0.9449   0.7207   0.9602
Er152     Er     0.937   0.7873   0.0101
Be153     Be     0.7196   0.0261   0.5667
Li154     Li     0.7817   0.9702   0.5684
Be155     Be     0.7804   0.0667   0.5261
Li156     Li     0.7183   0.0684   0.4702
Be157     Be     0.7196   0.9739   0.4333
Li158     Li     0.7817   0.0298   0.4316
Be159     Be     0.7804   0.9333   0.4739
Li160     Li     0.7183   0.9316   0.5298
He161     He     0.8582   0.9024   0.4722
S162     S     0.9769   0.8579   0.3975
Ce163     Ce     0.912   0.9095   0.4085
H164     H     0.906   0.9715   0.3526
He165     He     0.9024   0.8582   0.5278
S166     S     0.8579   0.9769   0.6025
Ce167     Ce     0.9095   0.912   0.5915
H168     H     0.9715   0.906   0.6474
Be169     Be     0.0261   0.7196   0.4333
Li170     Li     0.9702   0.7817   0.4316
Be171     Be     0.0667   0.7804   0.4739
Li172     Li     0.0684   0.7183   0.5298
Be173     Be     0.9739   0.7196   0.5667
Li174     Li     0.0298   0.7817   0.5684
Be175     Be     0.9333   0.7804   0.5261
Li176     Li     0.9316   0.7183   0.4702
He177     He     0.6418   0.5976   0.9722
S178     S     0.5231   0.6421   0.8975
Ce179     Ce     0.588   0.5905   0.9085
H180     H     0.594   0.5285   0.8526
He181     He     0.5976   0.6418   0.0278
S182     S     0.6421   0.5231   0.1025
Ce183     Ce     0.5905   0.588   0.0915
H184     H     0.5285   0.594   0.1474
He185     He     0.9722   0.6418   0.5976
S186     S     0.8975   0.5231   0.6421
Ce187     Ce     0.9085   0.588   0.5905
H188     H     0.8526   0.594   0.5285
He189     He     0.0278   0.5976   0.6418
S190     S     0.1025   0.6421   0.5231
Ce191     Ce     0.0915   0.5905   0.588
H192     H     0.1474   0.5285   0.594
Be193     Be     0.7196   0.4333   0.0261
Li194     Li     0.7817   0.4316   0.9702
Be195     Be     0.7804   0.4739   0.0667
Li196     Li     0.7183   0.5298   0.0684
Be197     Be     0.7196   0.5667   0.9739
Li198     Li     0.7817   0.5684   0.0298
Be199     Be     0.7804   0.5261   0.9333
Li200     Li     0.7183   0.4702   0.9316
He201     He     0.8582   0.5278   0.9024
S202     S     0.9769   0.6025   0.8579
Ce203     Ce     0.912   0.5915   0.9095
H204     H     0.906   0.6474   0.9715
He205     He     0.9024   0.4722   0.8582
S206     S     0.8579   0.3975   0.9769
Ce207     Ce     0.9095   0.4085   0.912
H208     H     0.9715   0.3526   0.906
Be209     Be     0.0261   0.5667   0.7196
Li210     Li     0.9702   0.5684   0.7817
Be211     Be     0.0667   0.5261   0.7804
Li212     Li     0.0684   0.4702   0.7183
Be213     Be     0.9739   0.4333   0.7196
Li214     Li     0.0298   0.4316   0.7817
Be215     Be     0.9333   0.4739   0.7804
Li216     Li     0.9316   0.5298   0.7183
He217     He     0.5976   0.9722   0.6418
S218     S     0.6421   0.8975   0.5231
Ce219     Ce     0.5905   0.9085   0.588
H220     H     0.5285   0.8526   0.594
He221     He     0.6418   0.0278   0.5976
S222     S     0.5231   0.1025   0.6421
Ce223     Ce     0.588   0.0915   0.5905
H224     H     0.594   0.1474   0.5285
Be225     Be     0.5667   0.7196   0.0261
Li226     Li     0.5684   0.7817   0.9702
Be227     Be     0.5261   0.7804   0.0667
Li228     Li     0.4702   0.7183   0.0684
Be229     Be     0.4333   0.7196   0.9739
Li230     Li     0.4316   0.7817   0.0298
Be231     Be     0.4739   0.7804   0.9333
Li232     Li     0.5298   0.7183   0.9316
He233     He     0.4722   0.8582   0.9024
S234     S     0.3975   0.9769   0.8579
Ce235     Ce     0.4085   0.912   0.9095
H236     H     0.3526   0.906   0.9715
He237     He     0.5278   0.9024   0.8582
S238     S     0.6025   0.8579   0.9769
Ce239     Ce     0.5915   0.9095   0.912
H240     H     0.6474   0.9715   0.906
Be241     Be     0.4333   0.0261   0.7196
Li242     Li     0.4316   0.9702   0.7817
Be243     Be     0.4739   0.0667   0.7804
Li244     Li     0.5298   0.0684   0.7183
Be245     Be     0.5667   0.9739   0.7196
Li246     Li     0.5684   0.0298   0.7817
Be247     Be     0.5261   0.9333   0.7804
Li248     Li     0.4702   0.9316   0.7183
He249     He     0.4722   0.0976   0.8582
S250     S     0.3975   0.1421   0.9769
Ce251     Ce     0.4085   0.0905   0.912
H252     H     0.3526   0.0285   0.906
He253     He     0.5278   0.1418   0.9024
S254     S     0.6025   0.0231   0.8579
Ce255     Ce     0.5915   0.088   0.9095
H256     H     0.6474   0.094   0.9715
He257     He     0.0976   0.8582   0.4722
S258     S     0.1421   0.9769   0.3975
Ce259     Ce     0.0905   0.912   0.4085
H260     H     0.0285   0.906   0.3526
He261     He     0.1418   0.9024   0.5278
S262     S     0.0231   0.8579   0.6025
Ce263     Ce     0.088   0.9095   0.5915
H264     H     0.094   0.9715   0.6474
He265     He     0.8582   0.4722   0.0976
S266     S     0.9769   0.3975   0.1421
Ce267     Ce     0.912   0.4085   0.0905
H268     H     0.906   0.3526   0.0285
He269     He     0.9024   0.5278   0.1418
S270     S     0.8579   0.6025   0.0231
Ce271     Ce     0.9095   0.5915   0.088
H272     H     0.9715   0.6474   0.094
He273     He     0.0976   0.5278   0.8582
S274     S     0.1421   0.6025   0.9769
Ce275     Ce     0.0905   0.5915   0.912
H276     H     0.0285   0.6474   0.906
He277     He     0.1418   0.4722   0.9024
S278     S     0.0231   0.3975   0.8579
Ce279     Ce     0.088   0.4085   0.9095
H280     H     0.094   0.3526   0.9715
He281     He     0.8582   0.0976   0.5278
S282     S     0.9769   0.1421   0.6025
Ce283     Ce     0.912   0.0905   0.5915
H284     H     0.906   0.0285   0.6474
He285     He     0.9024   0.1418   0.4722
S286     S     0.8579   0.0231   0.3975
Ce287     Ce     0.9095   0.088   0.4085
H288     H     0.9715   0.094   0.3526
He289     He     0.5278   0.8582   0.0976
S290     S     0.6025   0.9769   0.1421
Ce291     Ce     0.5915   0.912   0.0905
H292     H     0.6474   0.906   0.0285
He293     He     0.4722   0.9024   0.1418
S294     S     0.3975   0.8579   0.0231
Ce295     Ce     0.4085   0.9095   0.088
H296     H     0.3526   0.9715   0.094
He297     He     0.3582   0.5976   0.0278
S298     S     0.4769   0.6421   0.1025
Ce299     Ce     0.412   0.5905   0.0915
H300     H     0.406   0.5285   0.1474
He301     He     0.4024   0.6418   0.9722
S302     S     0.3579   0.5231   0.8975
Ce303     Ce     0.4095   0.588   0.9085
H304     H     0.4715   0.594   0.8526
Be305     Be     0.2804   0.5667   0.0261
Li306     Li     0.2183   0.5684   0.9702
Be307     Be     0.2196   0.5261   0.0667
Li308     Li     0.2817   0.4702   0.0684
Be309     Be     0.2804   0.4333   0.9739
Li310     Li     0.2183   0.4316   0.0298
Be311     Be     0.2196   0.4739   0.9333
Li312     Li     0.2817   0.5298   0.9316
He313     He     0.3582   0.4024   0.9722
S314     S     0.4769   0.3579   0.8975
Ce315     Ce     0.412   0.4095   0.9085
H316     H     0.406   0.4715   0.8526
He317     He     0.4024   0.3582   0.0278
S318     S     0.3579   0.4769   0.1025
Ce319     Ce     0.4095   0.412   0.0915
H320     H     0.4715   0.406   0.1474
He321     He     0.5976   0.3582   0.9722
S322     S     0.6421   0.4769   0.8975
Ce323     Ce     0.5905   0.412   0.9085
H324     H     0.5285   0.406   0.8526
He325     He     0.6418   0.4024   0.0278
S326     S     0.5231   0.3579   0.1025
Ce327     Ce     0.588   0.4095   0.0915
H328     H     0.594   0.4715   0.1474
Be329     Be     0.4333   0.2804   0.0261
Li330     Li     0.4316   0.2183   0.9702
Be331     Be     0.4739   0.2196   0.0667
Li332     Li     0.5298   0.2817   0.0684
Be333     Be     0.5667   0.2804   0.9739
Li334     Li     0.5684   0.2183   0.0298
Be335     Be     0.5261   0.2196   0.9333
Li336     Li     0.4702   0.2817   0.9316
He337     He     0.4722   0.1418   0.0976
S338     S     0.3975   0.0231   0.1421
Ce339     Ce     0.4085   0.088   0.0905
H340     H     0.3526   0.094   0.0285
He341     He     0.5278   0.0976   0.1418
S342     S     0.6025   0.1421   0.0231
Ce343     Ce     0.5915   0.0905   0.088
H344     H     0.6474   0.0285   0.094
He345     He     0.3582   0.9722   0.5976
S346     S     0.4769   0.8975   0.6421
Ce347     Ce     0.412   0.9085   0.5905
H348     H     0.406   0.8526   0.5285
He349     He     0.4024   0.0278   0.6418
S350     S     0.3579   0.1025   0.5231
Ce351     Ce     0.4095   0.0915   0.588
H352     H     0.4715   0.1474   0.594
He353     He     0.5976   0.0278   0.3582
S354     S     0.6421   0.1025   0.4769
Ce355     Ce     0.5905   0.0915   0.412
H356     H     0.5285   0.1474   0.406
He357     He     0.6418   0.9722   0.4024
S358     S     0.5231   0.8975   0.3579
Ce359     Ce     0.588   0.9085   0.4095
H360     H     0.594   0.8526   0.4715
Be361     Be     0.5667   0.0261   0.2804
Li362     Li     0.5684   0.9702   0.2183
Be363     Be     0.5261   0.0667   0.2196
Li364     Li     0.4702   0.0684   0.2817
Be365     Be     0.4333   0.9739   0.2804
Li366     Li     0.4316   0.0298   0.2183
Be367     Be     0.4739   0.9333   0.2196
Li368     Li     0.5298   0.9316   0.2817
He369     He     0.4024   0.9722   0.3582
S370     S     0.3579   0.8975   0.4769
Ce371     Ce     0.4095   0.9085   0.412
H372     H     0.4715   0.8526   0.406
He373     He     0.3582   0.0278   0.4024
S374     S     0.4769   0.1025   0.3579
Ce375     Ce     0.412   0.0915   0.4095
H376     H     0.406   0.1474   0.4715
Be377     Be     0.2804   0.0261   0.4333
Li378     Li     0.2183   0.9702   0.4316
Be379     Be     0.2196   0.0667   0.4739
Li380     Li     0.2817   0.0684   0.5298
Be381     Be     0.2804   0.9739   0.5667
Li382     Li     0.2183   0.0298   0.5684
Be383     Be     0.2196   0.9333   0.5261
Li384     Li     0.2817   0.9316   0.4702
He385     He     0.1418   0.0976   0.4722
S386     S     0.0231   0.1421   0.3975
Ce387     Ce     0.088   0.0905   0.4085
H388     H     0.094   0.0285   0.3526
He389     He     0.0976   0.1418   0.5278
S390     S     0.1421   0.0231   0.6025
Ce391     Ce     0.0905   0.088   0.5915
H392     H     0.0285   0.094   0.6474
He393     He     0.1418   0.5278   0.0976
S394     S     0.0231   0.6025   0.1421
Ce395     Ce     0.088   0.5915   0.0905
H396     H     0.094   0.6474   0.0285
He397     He     0.0976   0.4722   0.1418
S398     S     0.1421   0.3975   0.0231
Ce399     Ce     0.0905   0.4085   0.088
H400     H     0.0285   0.3526   0.094
He401     He     0.0278   0.3582   0.5976
S402     S     0.1025   0.4769   0.6421
Ce403     Ce     0.0915   0.412   0.5905
H404     H     0.1474   0.406   0.5285
He405     He     0.9722   0.4024   0.6418
S406     S     0.8975   0.3579   0.5231
Ce407     Ce     0.9085   0.4095   0.588
H408     H     0.8526   0.4715   0.594
Be409     Be     0.0261   0.2804   0.5667
Li410     Li     0.9702   0.2183   0.5684
Be411     Be     0.0667   0.2196   0.5261
Li412     Li     0.0684   0.2817   0.4702
Be413     Be     0.9739   0.2804   0.4333
Li414     Li     0.0298   0.2183   0.4316
Be415     Be     0.9333   0.2196   0.4739
Li416     Li     0.9316   0.2817   0.5298
He417     He     0.9722   0.3582   0.4024
S418     S     0.8975   0.4769   0.3579
Ce419     Ce     0.9085   0.412   0.4095
H420     H     0.8526   0.406   0.4715
He421     He     0.0278   0.4024   0.3582
S422     S     0.1025   0.3579   0.4769
Ce423     Ce     0.0915   0.4095   0.412
H424     H     0.1474   0.4715   0.406
He425     He     0.9722   0.5976   0.3582
S426     S     0.8975   0.6421   0.4769
Ce427     Ce     0.9085   0.5905   0.412
H428     H     0.8526   0.5285   0.406
He429     He     0.0278   0.6418   0.4024
S430     S     0.1025   0.5231   0.3579
Ce431     Ce     0.0915   0.588   0.4095
H432     H     0.1474   0.594   0.4715
Be433     Be     0.0261   0.4333   0.2804
Li434     Li     0.9702   0.4316   0.2183
Be435     Be     0.0667   0.4739   0.2196
Li436     Li     0.0684   0.5298   0.2817
Be437     Be     0.9739   0.5667   0.2804
Li438     Li     0.0298   0.5684   0.2183
Be439     Be     0.9333   0.5261   0.2196
Li440     Li     0.9316   0.4702   0.2817
B441     B     0.7207   0.9449   0.0398
Er442     Er     0.7873   0.937   0.9899
B443     B     0.7207   0.0398   0.0551
Er444     Er     0.7873   0.9899   0.063
B445     B     0.7207   0.0551   0.9602
Er446     Er     0.7873   0.063   0.0101
B447     B     0.7207   0.9602   0.9449
Er448     Er     0.7873   0.0101   0.937
loop_
_geom_bond_atom_site_label_1
_geom_bond_atom_site_label_2
_geom_bond_distance
_geom_bond_site_symmetry_2
_ccdc_geom_bond_type
Ti1     V7    10.001   .     S
Ti1     V2    10.001   .     S
Ti1     V28    10.001   .     S
V2     V3    9.997   1_655     S
V2     Er144    10.004   1_655     S
V3     V2    9.997   1_455     S
V3     Ti6    10.001   .     S
V3     Er146    10.004   1_455     S
V4     V5    9.997   1_556     S
V4     Ti6    10.001   .     S
V4     Er128    10.004   1_556     S
V5     V4    9.997   1_554     S
V5     Ti20    10.001   .     S
V5     Er148    10.004   1_554     S
Ti6     V12    10.001   .     S
V7     V8    9.997   1_565     S
V7     Er448    10.004   1_565     S
V8     V7    9.997   1_545     S
V8     Ti11    10.001   .     S
V8     Er138    10.004   1_545     S
V9     V10    9.997   1_655     S
V9     Ti11    10.001   .     S
V9     Er136    10.004   1_655     S
V10     V9    9.997   1_455     S
V10     Ti14    10.001   .     S
V10     Er140    10.004   1_455     S
Ti11     V15    10.001   .     S
V12     V13    9.997   1_565     S
V12     Er142    10.004   1_565     S
V13     V12    9.997   1_545     S
V13     Ti14    10.001   .     S
V13     Er122    10.004   1_545     S
Ti14     V21    10.001   .     S
V15     V16    9.997   1_556     S
V15     Er446    10.004   1_556     S
V16     V15    9.997   1_554     S
V16     Ti17    10.001   .     S
V16     Er130    10.004   1_554     S
Ti17     V31    10.001   .     S
Ti17     V25    10.001   .     S
V18     V19    9.997   1_655     S
V18     Ti32    10.001   .     S
V18     Er150    10.004   1_655     S
V19     V18    9.997   1_455     S
V19     Ti20    10.001   .     S
V19     Er114    10.004   1_455     S
Ti20     V23    10.001   .     S
V21     V22    9.997   1_556     S
V21     Er134    10.004   1_556     S
V22     V21    9.997   1_554     S
V22     Ti27    10.001   .     S
V22     Er124    10.004   1_554     S
V23     V24    9.997   1_565     S
V23     Er126    10.004   1_565     S
V24     V23    9.997   1_545     S
V24     Ti27    10.001   .     S
V24     Er116    10.004   1_545     S
V25     V26    9.997   1_655     S
V25     Er118    10.004   1_655     S
V26     V25    9.997   1_455     S
V26     Ti27    10.001   .     S
V26     Er132    10.004   1_455     S
V28     V29    9.997   1_556     S
V28     Er152    10.004   1_556     S
V29     V28    9.997   1_554     S
V29     Ti32    10.001   .     S
V29     Er442    10.004   1_554     S
V30     V31    9.997   1_565     S
V30     Ti32    10.001   .     S
V30     Er120    10.004   1_565     S
V31     V30    9.997   1_545     S
V31     Er444    10.004   1_545     S
V33     V34    9.997   .     S
V33     Ti35    10.001   .     S
V33     Er78    10.004   .     S
V34     Ti43    10.001   .     S
V34     Er92    10.004   .     S
Ti35     V45    10.001   .     S
Ti35     V61    10.001   .     S
V36     V37    9.997   .     S
V36     Ti38    10.001   .     S
V36     Er110    10.004   .     S
V37     Ti52    10.001   .     S
V37     Er100    10.004   .     S
Ti38     V40    10.001   .     S
Ti38     V62    10.001   .     S
V39     V40    9.997   .     S
V39     Ti43    10.001   .     S
V39     Er106    10.004   .     S
V40     Er96    10.004   .     S
V41     V42    9.997   .     S
V41     Ti49    10.001   .     S
V41     Er108    10.004   .     S
V42     Ti43    10.001   .     S
V42     Er80    10.004   .     S
V44     V45    9.997   .     S
V44     Ti48    10.001   .     S
V44     Er74    10.004   .     S
V45     Er72    10.004   .     S
V46     V47    9.997   .     S
V46     Ti49    10.001   .     S
V46     Er76    10.004   .     S
V47     Ti48    10.001   .     S
V47     Er88    10.004   .     S
Ti48     V56    10.001   .     S
Ti49     V51    10.001   .     S
V50     V51    9.997   .     S
V50     Ti52    10.001   .     S
V50     Er112    10.004   .     S
V51     Er84    10.004   .     S
Ti52     V53    10.001   .     S
V53     V54    9.997   .     S
V53     Er82    10.004   .     S
V54     Ti57    10.001   .     S
V54     Er104    10.004   .     S
V55     V56    9.997   .     S
V55     Ti57    10.001   .     S
V55     Er86    10.004   .     S
V56     Er68    10.004   .     S
Ti57     V59    10.001   .     S
V58     V59    9.997   .     S
V58     Ti64    10.001   .     S
V58     Er102    10.004   .     S
V59     Er66    10.004   .     S
V60     V61    9.997   .     S
V60     Ti64    10.001   .     S
V60     Er70    10.004   .     S
V61     Er90    10.004   .     S
V62     V63    9.997   .     S
V62     Er98    10.004   .     S
V63     Ti64    10.001   .     S
V63     Er94    10.004   .     S
B65     Er66    9.992   .     S
B65     Er68    10.004   .     S
B65     H360    10.004   .     S
Er66     B69    10.004   .     S
B67     Er68    9.992   .     S
B67     Er72    10.004   .     S
B67     H372    10.004   .     S
B69     Er70    9.992   .     S
B69     H220    10.004   .     S
Er70     B71    10.004   .     S
B71     Er72    9.992   .     S
B71     H348    10.004   .     S
B73     Er74    9.992   .     S
B73     Er76    10.004   .     S
B73     H432    10.004   .     S
Er74     B77    10.004   .     S
B75     Er76    9.992   .     S
B75     Er80    10.004   .     S
B75     H424    10.004   .     S
B77     Er78    9.992   .     S
B77     H192    10.004   .     S
Er78     B79    10.004   .     S
B79     Er80    9.992   .     S
B79     H404    10.004   .     S
B81     Er82    9.992   .     S
B81     Er84    10.004   .     S
B81     H328    10.004   .     S
Er82     B85    10.004   .     S
B83     Er84    9.992   .     S
B83     Er88    10.004   .     S
B83     H320    10.004   .     S
B85     Er86    9.992   .     S
B85     H184    10.004   .     S
Er86     B87    10.004   .     S
B87     Er88    9.992   .     S
B87     H300    10.004   .     S
B89     Er90    9.992   .     S
B89     Er92    10.004   .     S
B89     H304    10.004   .     S
Er90     B93    10.004   .     S
B91     Er92    9.992   .     S
B91     Er96    10.004   .     S
B91     H316    10.004   .     S
B93     Er94    9.992   .     S
B93     H180    10.004   .     S
Er94     B95    10.004   .     S
B95     Er96    9.992   .     S
B95     H324    10.004   .     S
B97     Er98    9.992   .     S
B97     Er100    10.004   .     S
B97     H408    10.004   .     S
Er98     B101    10.004   .     S
B99     Er100    9.992   .     S
B99     Er104    10.004   .     S
B99     H420    10.004   .     S
B101     Er102    9.992   .     S
B101     H188    10.004   .     S
Er102     B103    10.004   .     S
B103     Er104    9.992   .     S
B103     H428    10.004   .     S
B105     Er106    9.992   .     S
B105     Er108    10.004   .     S
B105     H352    10.004   .     S
Er106     B109    10.004   .     S
B107     Er108    9.992   .     S
B107     Er112    10.004   .     S
B107     H376    10.004   .     S
B109     Er110    9.992   .     S
B109     H224    10.004   .     S
Er110     B111    10.004   .     S
B111     Er112    9.992   .     S
B111     H356    10.004   .     S
B113     Er114    9.992   1_455     S
B113     Er116    10.004   .     S
B113     H260    10.004   .     S
Er114     B113    9.992   1_655     S
Er114     V19    10.004   1_655     S
Er114     B119    10.004   .     S
B115     Er116    9.992   1_545     S
B115     Er118    10.004   .     S
B115     H388    10.004   .     S
Er116     B115    9.992   1_565     S
Er116     V24    10.004   1_565     S
B117     Er118    9.992   1_655     S
B117     Er120    10.004   .     S
B117     H288    10.004   .     S
Er118     B117    9.992   1_455     S
Er118     V25    10.004   1_455     S
B119     Er120    9.992   1_565     S
B119     H164    10.004   .     S
Er120     B119    9.992   1_545     S
Er120     V30    10.004   1_545     S
B121     Er122    9.992   1_545     S
B121     Er124    10.004   .     S
B121     H252    10.004   .     S
Er122     B121    9.992   1_565     S
Er122     V13    10.004   1_565     S
Er122     B127    10.004   .     S
B123     Er124    9.992   1_554     S
B123     Er126    10.004   .     S
B123     H340    10.004   .     S
Er124     B123    9.992   1_556     S
Er124     V22    10.004   1_556     S
B125     Er126    9.992   1_565     S
B125     Er128    10.004   .     S
B125     H296    10.004   .     S
Er126     B125    9.992   1_545     S
Er126     V23    10.004   1_545     S
B127     Er128    9.992   1_556     S
B127     H236    10.004   .     S
Er128     B127    9.992   1_554     S
Er128     V4    10.004   1_554     S
B129     Er130    9.992   1_554     S
B129     Er132    10.004   .     S
B129     H268    10.004   .     S
Er130     B129    9.992   1_556     S
Er130     V16    10.004   1_556     S
Er130     B135    10.004   .     S
B131     Er132    9.992   1_455     S
B131     Er134    10.004   .     S
B131     H400    10.004   .     S
Er132     B131    9.992   1_655     S
Er132     V26    10.004   1_655     S
B133     Er134    9.992   1_556     S
B133     Er136    10.004   .     S
B133     H280    10.004   .     S
Er134     B133    9.992   1_554     S
Er134     V21    10.004   1_554     S
B135     Er136    9.992   1_655     S
B135     H208    10.004   .     S
Er136     B135    9.992   1_455     S
Er136     V9    10.004   1_455     S
B137     Er138    9.992   1_545     S
B137     Er140    10.004   .     S
B137     H284    10.004   .     S
Er138     B137    9.992   1_565     S
Er138     V8    10.004   1_565     S
Er138     B143    10.004   .     S
B139     Er140    9.992   1_455     S
B139     Er142    10.004   .     S
B139     H392    10.004   .     S
Er140     B139    9.992   1_655     S
Er140     V10    10.004   1_655     S
B141     Er142    9.992   1_565     S
B141     Er144    10.004   .     S
B141     H264    10.004   .     S
Er142     B141    9.992   1_545     S
Er142     V12    10.004   1_545     S
B143     Er144    9.992   1_655     S
B143     H168    10.004   .     S
Er144     B143    9.992   1_455     S
Er144     V2    10.004   1_455     S
B145     Er146    9.992   1_455     S
B145     Er148    10.004   .     S
B145     H276    10.004   .     S
Er146     B145    9.992   1_655     S
Er146     V3    10.004   1_655     S
Er146     B151    10.004   .     S
B147     Er148    9.992   1_554     S
B147     Er150    10.004   .     S
B147     H396    10.004   .     S
Er148     B147    9.992   1_556     S
Er148     V5    10.004   1_556     S
B149     Er150    9.992   1_655     S
B149     Er152    10.004   .     S
B149     H272    10.004   .     S
Er150     B149    9.992   1_455     S
Er150     V18    10.004   1_455     S
B151     Er152    9.992   1_556     S
B151     H204    10.004   .     S
Er152     B151    9.992   1_554     S
Er152     V28    10.004   1_554     S
Be153     Li154    9.994   1_545     S
Be153     Be155    9.998   .     S
Be153     He221    10.002   .     S
Li154     Be153    9.994   1_565     S
Li154     Li160    10.001   .     S
Li154     S166    10.004   .     S
Be155     Li156    9.994   .     S
Be155     He281    10.002   .     S
Li156     Li158    10.001   .     S
Li156     S354    10.004   .     S
Be157     Li158    9.994   1_565     S
Be157     Be159    9.998   .     S
Be157     He357    10.002   .     S
Li158     Be157    9.994   1_545     S
Li158     S286    10.004   .     S
Be159     Li160    9.994   .     S
Be159     He161    10.002   .     S
Li160     S218    10.004   .     S
He161     Ce163    9.998   .     S
He161     He165    10.0   .     S
S162     Ce163    9.997   .     S
S162     H260    10.003   1_655     S
S162     Li170    10.004   .     S
Ce163     H164    9.998   .     S
H164     S286    10.003   1_565     S
He165     Ce167    9.998   .     S
He165     Be175    10.002   .     S
S166     Ce167    9.997   .     S
S166     H284    10.003   1_565     S
Ce167     H168    9.998   .     S
H168     S262    10.003   1_655     S
Be169     Li170    9.994   1_455     S
Be169     Be171    9.998   .     S
Be169     He429    10.002   .     S
Li170     Be169    9.994   1_655     S
Li170     Li176    10.001   .     S
Be171     Li172    9.994   .     S
Be171     He257    10.002   .     S
Li172     Li174    10.001   .     S
Li172     S190    10.004   .     S
Be173     Li174    9.994   1_655     S
Be173     Be175    9.998   .     S
Be173     He185    10.002   .     S
Li174     Be173    9.994   1_455     S
Li174     S262    10.004   .     S
Be175     Li176    9.994   .     S
Li176     S426    10.004   .     S
He177     Ce179    9.998   .     S
He177     He181    10.0   1_556     S
He177     Be197    10.002   .     S
S178     Ce179    9.997   .     S
S178     H304    10.003   .     S
S178     Li232    10.004   .     S
Ce179     H180    9.998   .     S
H180     S322    10.003   .     S
He181     Ce183    9.998   .     S
He181     He177    10.0   1_554     S
He181     Be225    10.002   .     S
S182     Ce183    9.997   .     S
S182     H328    10.003   .     S
S182     Li196    10.004   .     S
Ce183     H184    9.998   .     S
H184     S298    10.003   .     S
He185     Ce187    9.998   .     S
He185     He189    10.0   1_655     S
S186     Ce187    9.997   .     S
S186     H408    10.003   .     S
S186     Li216    10.004   .     S
Ce187     H188    9.998   .     S
H188     S426    10.003   .     S
He189     Ce191    9.998   .     S
He189     He185    10.0   1_455     S
He189     Be209    10.002   .     S
S190     Ce191    9.997   .     S
S190     H432    10.003   .     S
Ce191     H192    9.998   .     S
H192     S402    10.003   .     S
Be193     Li194    9.994   1_554     S
Be193     Be195    9.998   .     S
Be193     He325    10.002   .     S
Li194     Be193    9.994   1_556     S
Li194     Li200    10.001   .     S
Li194     S206    10.004   .     S
Be195     Li196    9.994   .     S
Be195     He265    10.002   .     S
Li196     Li198    10.001   .     S
Be197     Li198    9.994   1_556     S
Be197     Be199    9.998   .     S
Li198     Be197    9.994   1_554     S
Li198     S270    10.004   .     S
Be199     Li200    9.994   .     S
Be199     He201    10.002   .     S
Li200     S322    10.004   .     S
He201     Ce203    9.998   .     S
He201     He205    10.0   .     S
S202     Ce203    9.997   .     S
S202     H276    10.003   1_655     S
S202     Li210    10.004   .     S
Ce203     H204    9.998   .     S
H204     S270    10.003   1_556     S
He205     Ce207    9.998   .     S
He205     Be215    10.002   .     S
S206     Ce207    9.997   .     S
S206     H268    10.003   1_556     S
Ce207     H208    9.998   .     S
H208     S278    10.003   1_655     S
Be209     Li210    9.994   1_455     S
Be209     Be211    9.998   .     S
Li210     Be209    9.994   1_655     S
Li210     Li216    10.001   .     S
Be211     Li212    9.994   .     S
Be211     He273    10.002   .     S
Li212     Li214    10.001   .     S
Li212     S402    10.004   .     S
Be213     Li214    9.994   1_655     S
Be213     Be215    9.998   .     S
Be213     He405    10.002   .     S
Li214     Be213    9.994   1_455     S
Li214     S278    10.004   .     S
Be215     Li216    9.994   .     S
He217     Ce219    9.998   .     S
He217     He221    10.0   1_565     S
He217     Be245    10.002   .     S
S218     Ce219    9.997   .     S
S218     H360    10.003   .     S
Ce219     H220    9.998   .     S
H220     S346    10.003   .     S
He221     Ce223    9.998   .     S
He221     He217    10.0   1_545     S
S222     Ce223    9.997   .     S
S222     H352    10.003   .     S
S222     Li244    10.004   .     S
Ce223     H224    9.998   .     S
H224     S354    10.003   .     S
Be225     Li226    9.994   1_554     S
Be225     Be227    9.998   .     S
Li226     Be225    9.994   1_556     S
Li226     Li232    10.001   .     S
Li226     S238    10.004   .     S
Be227     Li228    9.994   .     S
Be227     He289    10.002   .     S
Li228     Li230    10.001   .     S
Li228     S298    10.004   .     S
Be229     Li230    9.994   1_556     S
Be229     Be231    9.998   .     S
Be229     He301    10.002   .     S
Li230     Be229    9.994   1_554     S
Li230     S294    10.004   .     S
Be231     Li232    9.994   .     S
Be231     He233    10.002   .     S
He233     Ce235    9.998   .     S
He233     He237    10.0   .     S
S234     Ce235    9.997   .     S
S234     H252    10.003   1_565     S
S234     Li242    10.004   .     S
Ce235     H236    9.998   .     S
H236     S294    10.003   1_556     S
He237     Ce239    9.998   .     S
He237     Be247    10.002   .     S
S238     Ce239    9.997   .     S
S238     H292    10.003   1_556     S
Ce239     H240    9.998   .     S
H240     S254    10.003   1_565     S
H240     B447    10.004   .     S
Be241     Li242    9.994   1_545     S
Be241     Be243    9.998   .     S
Be241     He349    10.002   .     S
Li242     Be241    9.994   1_565     S
Li242     Li248    10.001   .     S
Be243     Li244    9.994   .     S
Be243     He249    10.002   .     S
Li244     Li246    10.001   .     S
Be245     Li246    9.994   1_565     S
Be245     Be247    9.998   .     S
Li246     Be245    9.994   1_545     S
Li246     S254    10.004   .     S
Be247     Li248    9.994   .     S
Li248     S346    10.004   .     S
He249     Ce251    9.998   .     S
He249     He253    10.0   .     S
S250     Ce251    9.997   .     S
S250     H340    10.003   1_556     S
S250     Li330    10.004   .     S
Ce251     H252    9.998   .     S
H252     S234    10.003   1_545     S
He253     Ce255    9.998   .     S
He253     Be335    10.002   .     S
S254     Ce255    9.997   .     S
S254     H240    10.003   1_545     S
Ce255     H256    9.998   .     S
H256     S342    10.003   1_556     S
H256     B445    10.004   .     S
He257     Ce259    9.998   .     S
He257     He261    10.0   .     S
S258     Ce259    9.997   .     S
S258     H388    10.003   1_565     S
S258     Li378    10.004   .     S
Ce259     H260    9.998   .     S
H260     S162    10.003   1_455     S
He261     Ce263    9.998   .     S
He261     Be383    10.002   .     S
S262     Ce263    9.997   .     S
S262     H168    10.003   1_455     S
Ce263     H264    9.998   .     S
H264     S390    10.003   1_565     S
He265     Ce267    9.998   .     S
He265     He269    10.0   .     S
S266     Ce267    9.997   .     S
S266     H400    10.003   1_655     S
S266     Li434    10.004   .     S
Ce267     H268    9.998   .     S
H268     S206    10.003   1_554     S
He269     Ce271    9.998   .     S
He269     Be439    10.002   .     S
S270     Ce271    9.997   .     S
S270     H204    10.003   1_554     S
Ce271     H272    9.998   .     S
H272     S394    10.003   1_655     S
He273     Ce275    9.998   .     S
He273     He277    10.0   .     S
S274     Ce275    9.997   .     S
S274     H396    10.003   1_556     S
S274     Li306    10.004   .     S
Ce275     H276    9.998   .     S
H276     S202    10.003   1_455     S
He277     Ce279    9.998   .     S
He277     Be311    10.002   .     S
S278     Ce279    9.997   .     S
S278     H208    10.003   1_455     S
Ce279     H280    9.998   .     S
H280     S398    10.003   1_556     S
He281     Ce283    9.998   .     S
He281     He285    10.0   .     S
S282     Ce283    9.997   .     S
S282     H392    10.003   1_655     S
S282     Li410    10.004   .     S
Ce283     H284    9.998   .     S
H284     S166    10.003   1_545     S
He285     Ce287    9.998   .     S
He285     Be415    10.002   .     S
S286     Ce287    9.997   .     S
S286     H164    10.003   1_545     S
Ce287     H288    9.998   .     S
H288     S386    10.003   1_655     S
He289     Ce291    9.998   .     S
He289     He293    10.0   .     S
S290     Ce291    9.997   .     S
S290     H344    10.003   1_565     S
S290     Li362    10.004   .     S
Ce291     H292    9.998   .     S
H292     S238    10.003   1_554     S
H292     B441    10.004   .     S
He293     Ce295    9.998   .     S
He293     Be367    10.002   .     S
S294     Ce295    9.997   .     S
S294     H236    10.003   1_554     S
Ce295     H296    9.998   .     S
H296     S338    10.003   1_565     S
He297     Ce299    9.998   .     S
He297     He301    10.0   1_554     S
He297     Be305    10.002   .     S
S298     Ce299    9.997   .     S
Ce299     H300    9.998   .     S
H300     S318    10.003   .     S
He301     Ce303    9.998   .     S
He301     He297    10.0   1_556     S
S302     Ce303    9.997   .     S
S302     H316    10.003   .     S
S302     Li312    10.004   .     S
Ce303     H304    9.998   .     S
Be305     Li306    9.994   1_554     S
Be305     Be307    9.998   .     S
Li306     Be305    9.994   1_556     S
Li306     Li312    10.001   .     S
Be307     Li308    9.994   .     S
Be307     He393    10.002   .     S
Li308     Li310    10.001   .     S
Li308     S318    10.004   .     S
Be309     Li310    9.994   1_556     S
Be309     Be311    9.998   .     S
Be309     He313    10.002   .     S
Li310     Be309    9.994   1_554     S
Li310     S398    10.004   .     S
Be311     Li312    9.994   .     S
He313     Ce315    9.998   .     S
He313     He317    10.0   1_556     S
S314     Ce315    9.997   .     S
S314     H324    10.003   .     S
S314     Li336    10.004   .     S
Ce315     H316    9.998   .     S
He317     Ce319    9.998   .     S
He317     He313    10.0   1_554     S
He317     Be329    10.002   .     S
S318     Ce319    9.997   .     S
Ce319     H320    9.998   .     S
H320     S326    10.003   .     S
He321     Ce323    9.998   .     S
He321     He325    10.0   1_556     S
He321     Be333    10.002   .     S
S322     Ce323    9.997   .     S
Ce323     H324    9.998   .     S
He325     Ce327    9.998   .     S
He325     He321    10.0   1_554     S
S326     Ce327    9.997   .     S
S326     Li332    10.004   .     S
Ce327     H328    9.998   .     S
Be329     Li330    9.994   1_554     S
Be329     Be331    9.998   .     S
Li330     Be329    9.994   1_556     S
Li330     Li336    10.001   .     S
Be331     Li332    9.994   .     S
Be331     He337    10.002   .     S
Li332     Li334    10.001   .     S
Be333     Li334    9.994   1_556     S
Be333     Be335    9.998   .     S
Li334     Be333    9.994   1_554     S
Li334     S342    10.004   .     S
Be335     Li336    9.994   .     S
He337     Ce339    9.998   .     S
He337     He341    10.0   .     S
S338     Ce339    9.997   .     S
S338     H296    10.003   1_545     S
S338     Li366    10.004   .     S
Ce339     H340    9.998   .     S
H340     S250    10.003   1_554     S
He341     Ce343    9.998   .     S
He341     Be363    10.002   .     S
S342     Ce343    9.997   .     S
S342     H256    10.003   1_554     S
Ce343     H344    9.998   .     S
H344     S290    10.003   1_545     S
H344     B443    10.004   .     S
He345     Ce347    9.998   .     S
He345     He349    10.0   1_565     S
He345     Be381    10.002   .     S
S346     Ce347    9.997   .     S
Ce347     H348    9.998   .     S
H348     S370    10.003   .     S
He349     Ce351    9.998   .     S
He349     He345    10.0   1_545     S
S350     Ce351    9.997   .     S
S350     H376    10.003   .     S
S350     Li380    10.004   .     S
Ce351     H352    9.998   .     S
He353     Ce355    9.998   .     S
He353     He357    10.0   1_545     S
He353     Be361    10.002   .     S
S354     Ce355    9.997   .     S
Ce355     H356    9.998   .     S
H356     S374    10.003   .     S
He357     Ce359    9.998   .     S
He357     He353    10.0   1_565     S
S358     Ce359    9.997   .     S
S358     H372    10.003   .     S
S358     Li368    10.004   .     S
Ce359     H360    9.998   .     S
Be361     Li362    9.994   1_545     S
Be361     Be363    9.998   .     S
Li362     Be361    9.994   1_565     S
Li362     Li368    10.001   .     S
Be363     Li364    9.994   .     S
Li364     Li366    10.001   .     S
Li364     S374    10.004   .     S
Be365     Li366    9.994   1_565     S
Be365     Be367    9.998   .     S
Be365     He369    10.002   .     S
Li366     Be365    9.994   1_545     S
Be367     Li368    9.994   .     S
He369     Ce371    9.998   .     S
He369     He373    10.0   1_565     S
S370     Ce371    9.997   .     S
S370     Li384    10.004   .     S
Ce371     H372    9.998   .     S
He373     Ce375    9.998   .     S
He373     He369    10.0   1_545     S
He373     Be377    10.002   .     S
S374     Ce375    9.997   .     S
Ce375     H376    9.998   .     S
Be377     Li378    9.994   1_545     S
Be377     Be379    9.998   .     S
Li378     Be377    9.994   1_565     S
Li378     Li384    10.001   .     S
Be379     Li380    9.994   .     S
Be379     He385    10.002   .     S
Li380     Li382    10.001   .     S
Be381     Li382    9.994   1_565     S
Be381     Be383    9.998   .     S
Li382     Be381    9.994   1_545     S
Li382     S390    10.004   .     S
Be383     Li384    9.994   .     S
He385     Ce387    9.998   .     S
He385     He389    10.0   .     S
S386     Ce387    9.997   .     S
S386     H288    10.003   1_455     S
S386     Li414    10.004   .     S
Ce387     H388    9.998   .     S
H388     S258    10.003   1_545     S
He389     Ce391    9.998   .     S
He389     Be411    10.002   .     S
S390     Ce391    9.997   .     S
S390     H264    10.003   1_545     S
Ce391     H392    9.998   .     S
H392     S282    10.003   1_455     S
He393     Ce395    9.998   .     S
He393     He397    10.0   .     S
S394     Ce395    9.997   .     S
S394     H272    10.003   1_455     S
S394     Li438    10.004   .     S
Ce395     H396    9.998   .     S
H396     S274    10.003   1_554     S
He397     Ce399    9.998   .     S
He397     Be435    10.002   .     S
S398     Ce399    9.997   .     S
S398     H280    10.003   1_554     S
Ce399     H400    9.998   .     S
H400     S266    10.003   1_455     S
He401     Ce403    9.998   .     S
He401     He405    10.0   1_455     S
He401     Be409    10.002   .     S
S402     Ce403    9.997   .     S
Ce403     H404    9.998   .     S
H404     S422    10.003   .     S
He405     Ce407    9.998   .     S
He405     He401    10.0   1_655     S
S406     Ce407    9.997   .     S
S406     H420    10.003   .     S
S406     Li416    10.004   .     S
Ce407     H408    9.998   .     S
Be409     Li410    9.994   1_455     S
Be409     Be411    9.998   .     S
Li410     Be409    9.994   1_655     S
Li410     Li416    10.001   .     S
Be411     Li412    9.994   .     S
Li412     Li414    10.001   .     S
Li412     S422    10.004   .     S
Be413     Li414    9.994   1_655     S
Be413     Be415    9.998   .     S
Be413     He417    10.002   .     S
Li414     Be413    9.994   1_455     S
Be415     Li416    9.994   .     S
He417     Ce419    9.998   .     S
He417     He421    10.0   1_655     S
S418     Ce419    9.997   .     S
S418     H428    10.003   .     S
S418     Li440    10.004   .     S
Ce419     H420    9.998   .     S
He421     Ce423    9.998   .     S
He421     He417    10.0   1_455     S
He421     Be433    10.002   .     S
S422     Ce423    9.997   .     S
Ce423     H424    9.998   .     S
H424     S430    10.003   .     S
He425     Ce427    9.998   .     S
He425     He429    10.0   1_655     S
He425     Be437    10.002   .     S
S426     Ce427    9.997   .     S
Ce427     H428    9.998   .     S
He429     Ce431    9.998   .     S
He429     He425    10.0   1_455     S
S430     Ce431    9.997   .     S
S430     Li436    10.004   .     S
Ce431     H432    9.998   .     S
Be433     Li434    9.994   1_455     S
Be433     Be435    9.998   .     S
Li434     Be433    9.994   1_655     S
Li434     Li440    10.001   .     S
Be435     Li436    9.994   .     S
Li436     Li438    10.001   .     S
Be437     Li438    9.994   1_655     S
Be437     Be439    9.998   .     S
Li438     Be437    9.994   1_455     S
Be439     Li440    9.994   .     S
B441     Er442    9.992   1_554     S
B441     Er444    10.004   .     S
Er442     B441    9.992   1_556     S
Er442     V29    10.004   1_556     S
Er442     B447    10.004   .     S
B443     Er444    9.992   1_545     S
B443     Er446    10.004   .     S
Er444     B443    9.992   1_565     S
Er444     V31    10.004   1_565     S
B445     Er446    9.992   1_556     S
B445     Er448    10.004   .     S
Er446     B445    9.992   1_554     S
Er446     V15    10.004   1_554     S
B447     Er448    9.992   1_565     S
Er448     B447    9.992   1_545     S
Er448     V7    10.004   1_545     S
