data_kle
_audit_creation_date              2020-02-02
_audit_creation_method            'Pymatgen'
_symmetry_space_group_name_H-M    'P1'
_symmetry_Int_Tables_number       1
loop_
_symmetry_equiv_pos_as_xyz
  x,y,z
_cell_length_a                    36.4575
_cell_length_b                    36.4575
_cell_length_c                    36.4575
_cell_angle_alpha                 90.0
_cell_angle_beta                 90.0
_cell_angle_gamma                 90.0
loop_
_atom_site_label
_atom_site_type_symbol
_atom_site_fract_x
_atom_site_fract_y
_atom_site_fract_z
Ti1     Ti     0.1372   0.7501   0.0
V2     V     0.2498   0.6372   0.0
Ti3     Ti     0.8628   0.2499   0.0
V4     V     0.7502   0.3628   0.0
Ti5     Ti     0.7501   0.0   0.1372
V6     V     0.6372   0.0   0.2498
Ti7     Ti     0.2499   0.0   0.8628
V8     V     0.3628   0.0   0.7502
Ti9     Ti     0.8628   0.7501   0.0
V10     V     0.7502   0.6372   0.0
Ti11     Ti     0.1372   0.2499   0.0
V12     V     0.2498   0.3628   0.0
Ti13     Ti     0.7501   0.0   0.8628
V14     V     0.6372   0.0   0.7502
Ti15     Ti     0.2499   0.0   0.1372
V16     V     0.3628   0.0   0.2498
Ti17     Ti     0.0   0.1372   0.7501
V18     V     0.0   0.2498   0.6372
Ti19     Ti     0.0   0.8628   0.7501
V20     V     0.0   0.7502   0.6372
Ti21     Ti     0.0   0.8628   0.2499
V22     V     0.0   0.7502   0.3628
Ti23     Ti     0.0   0.1372   0.2499
V24     V     0.0   0.2498   0.3628
Ti25     Ti     0.2501   0.5   0.3628
V26     V     0.1372   0.5   0.2502
Er27     Er     0.25   0.75   0.25
Ti28     Ti     0.3628   0.2501   0.5
V29     V     0.2502   0.1372   0.5
Er30     Er     0.25   0.25   0.75
Ti31     Ti     0.3628   0.7499   0.5
V32     V     0.2502   0.8628   0.5
Ti33     Ti     0.2501   0.5   0.6372
V34     V     0.1372   0.5   0.7498
Er35     Er     0.25   0.75   0.75
Ti36     Ti     0.7499   0.5   0.3628
V37     V     0.8628   0.5   0.2502
Ti38     Ti     0.5   0.6372   0.2501
V39     V     0.5   0.7498   0.1372
Er40     Er     0.75   0.75   0.25
Ti41     Ti     0.6372   0.7499   0.5
V42     V     0.7498   0.8628   0.5
Ti43     Ti     0.5   0.6372   0.7499
V44     V     0.5   0.7498   0.8628
Ti45     Ti     0.7499   0.5   0.6372
V46     V     0.8628   0.5   0.7498
Er47     Er     0.75   0.75   0.75
Ti48     Ti     0.5   0.3628   0.2501
V49     V     0.5   0.2502   0.1372
Er50     Er     0.75   0.25   0.25
Ti51     Ti     0.5   0.3628   0.7499
V52     V     0.5   0.2502   0.8628
Ti53     Ti     0.6372   0.2501   0.5
V54     V     0.7498   0.1372   0.5
Er55     Er     0.75   0.25   0.75
Er56     Er     0.25   0.25   0.25
loop_
_geom_bond_atom_site_label_1
_geom_bond_atom_site_label_2
_geom_bond_distance
_geom_bond_site_symmetry_2
_ccdc_geom_bond_type
Ti1     Er35    10.0   1_554     S
Ti1     Er27    10.0   .     S
Ti1     Ti9    10.0   1_455     S
V2     Er35    10.0   1_554     S
V2     Er27    10.0   .     S
V2     V12    10.0   .     S
Ti3     Er55    10.0   1_554     S
Ti3     Er50    10.0   .     S
Ti3     Ti11    10.0   1_655     S
V4     Er55    10.0   1_554     S
V4     Er50    10.0   .     S
V4     V10    10.0   .     S
Ti5     Er40    10.0   1_545     S
Ti5     Er50    10.0   .     S
Ti5     Ti13    10.0   1_554     S
V6     Er40    10.0   1_545     S
V6     Er50    10.0   .     S
V6     V16    10.0   .     S
Ti7     Er35    10.0   1_545     S
Ti7     Er30    10.0   .     S
Ti7     Ti15    10.0   1_556     S
V8     Er35    10.0   1_545     S
V8     Er30    10.0   .     S
V8     V14    10.0   .     S
Ti9     Er47    10.0   1_554     S
Ti9     Er40    10.0   .     S
Ti9     Ti1    10.0   1_655     S
V10     Er47    10.0   1_554     S
V10     Er40    10.0   .     S
Ti11     Er30    10.0   1_554     S
Ti11     Er56    10.0   .     S
Ti11     Ti3    10.0   1_455     S
V12     Er30    10.0   1_554     S
V12     Er56    10.0   .     S
Ti13     Er47    10.0   1_545     S
Ti13     Er55    10.0   .     S
Ti13     Ti5    10.0   1_556     S
V14     Er47    10.0   1_545     S
V14     Er55    10.0   .     S
Ti15     Er27    10.0   1_545     S
Ti15     Er56    10.0   .     S
Ti15     Ti7    10.0   1_554     S
V16     Er27    10.0   1_545     S
V16     Er56    10.0   .     S
Ti17     Er55    10.0   1_455     S
Ti17     Er30    10.0   .     S
Ti17     Ti19    10.0   1_545     S
V18     Er55    10.0   1_455     S
V18     Er30    10.0   .     S
V18     V24    10.0   .     S
Ti19     Er47    10.0   1_455     S
Ti19     Er35    10.0   .     S
Ti19     Ti17    10.0   1_565     S
V20     Er47    10.0   1_455     S
V20     Er35    10.0   .     S
V20     V22    10.0   .     S
Ti21     Er27    10.0   .     S
Ti21     Er40    10.0   1_455     S
Ti21     Ti23    10.0   1_565     S
V22     Er27    10.0   .     S
V22     Er40    10.0   1_455     S
Ti23     Er50    10.0   1_455     S
Ti23     Er56    10.0   .     S
Ti23     Ti21    10.0   1_545     S
V24     Er50    10.0   1_455     S
V24     Er56    10.0   .     S
Ti25     Er56    10.0   .     S
Ti25     Er27    10.0   .     S
Ti25     Ti33    10.0   .     S
V26     Er56    10.0   .     S
V26     Er27    10.0   .     S
V26     V37    10.0   1_455     S
Er27     V16    10.0   1_565     S
Er27     Ti15    10.0   1_565     S
Er27     V32    10.0   .     S
Er27     Ti31    10.0   .     S
Er27     V39    10.0   .     S
Er27     Ti38    10.0   .     S
Ti28     Er56    10.0   .     S
Ti28     Er30    10.0   .     S
Ti28     Ti53    10.0   .     S
V29     Er56    10.0   .     S
V29     Er30    10.0   .     S
V29     V32    10.0   1_545     S
Er30     V12    10.0   1_556     S
Er30     Ti11    10.0   1_556     S
Er30     V34    10.0   .     S
Er30     Ti33    10.0   .     S
Er30     V52    10.0   .     S
Er30     Ti51    10.0   .     S
Ti31     Er35    10.0   .     S
Ti31     Ti41    10.0   .     S
V32     Er35    10.0   .     S
V32     V29    10.0   1_565     S
Ti33     Er35    10.0   .     S
V34     Er35    10.0   .     S
V34     V46    10.0   1_455     S
Er35     V2    10.0   1_556     S
Er35     Ti1    10.0   1_556     S
Er35     V8    10.0   1_565     S
Er35     Ti7    10.0   1_565     S
Er35     V44    10.0   .     S
Er35     Ti43    10.0   .     S
Ti36     Er50    10.0   .     S
Ti36     Er40    10.0   .     S
Ti36     Ti45    10.0   .     S
V37     Er50    10.0   .     S
V37     Er40    10.0   .     S
V37     V26    10.0   1_655     S
Ti38     Er40    10.0   .     S
Ti38     Ti48    10.0   .     S
V39     Er40    10.0   .     S
V39     V44    10.0   1_554     S
Er40     V6    10.0   1_565     S
Er40     Ti5    10.0   1_565     S
Er40     V22    10.0   1_655     S
Er40     Ti21    10.0   1_655     S
Er40     V42    10.0   .     S
Er40     Ti41    10.0   .     S
Ti41     Er47    10.0   .     S
V42     Er47    10.0   .     S
V42     V54    10.0   1_565     S
Ti43     Er47    10.0   .     S
Ti43     Ti51    10.0   .     S
V44     Er47    10.0   .     S
V44     V39    10.0   1_556     S
Ti45     Er47    10.0   .     S
Ti45     Er55    10.0   .     S
V46     Er47    10.0   .     S
V46     Er55    10.0   .     S
V46     V34    10.0   1_655     S
Er47     V10    10.0   1_556     S
Er47     Ti9    10.0   1_556     S
Er47     V14    10.0   1_565     S
Er47     Ti13    10.0   1_565     S
Er47     V20    10.0   1_655     S
Er47     Ti19    10.0   1_655     S
Ti48     Er50    10.0   .     S
Ti48     Er56    10.0   .     S
V49     Er50    10.0   .     S
V49     Er56    10.0   .     S
V49     V52    10.0   1_554     S
Er50     V24    10.0   1_655     S
Er50     Ti23    10.0   1_655     S
Er50     V54    10.0   .     S
Er50     Ti53    10.0   .     S
Ti51     Er55    10.0   .     S
V52     Er55    10.0   .     S
V52     V49    10.0   1_556     S
Ti53     Er55    10.0   .     S
V54     Er55    10.0   .     S
V54     V42    10.0   1_545     S
Er55     V4    10.0   1_556     S
Er55     Ti3    10.0   1_556     S
Er55     V18    10.0   1_655     S
Er55     Ti17    10.0   1_655     S
