data_lnj
_audit_creation_date              2020-02-02
_audit_creation_method            'Pymatgen'
_symmetry_space_group_name_H-M    'P1'
_symmetry_Int_Tables_number       1
loop_
_symmetry_equiv_pos_as_xyz
  x,y,z
_cell_length_a                    28.4602
_cell_length_b                    28.4602
_cell_length_c                    35.4954
_cell_angle_alpha                 90.0
_cell_angle_beta                 90.0
_cell_angle_gamma                 120.0
loop_
_atom_site_label
_atom_site_type_symbol
_atom_site_fract_x
_atom_site_fract_y
_atom_site_fract_z
Er1     Er     0.3681   0.184   0.4407
Er2     Er     0.184   0.3681   0.5593
Er3     Er     0.816   0.184   0.4407
Er4     Er     0.816   0.6319   0.4407
Er5     Er     0.6319   0.816   0.5593
Er6     Er     0.184   0.816   0.5593
V7     V     0.3333   0.6667   0.75
Er8     Er     0.816   0.184   0.0593
Er9     Er     0.6319   0.816   0.9407
Er10     Er     0.816   0.6319   0.0593
Er11     Er     0.184   0.816   0.9407
Er12     Er     0.3681   0.184   0.0593
Er13     Er     0.184   0.3681   0.9407
V14     V     0.6667   0.3333   0.25
loop_
_geom_bond_atom_site_label_1
_geom_bond_atom_site_label_2
_geom_bond_distance
_geom_bond_site_symmetry_2
_ccdc_geom_bond_type
Er1     Er2    10.0   .     S
Er1     Er6    10.0   1_545     S
Er1     V14    10.0   .     S
Er2     Er3    10.0   1_455     S
Er2     V7    10.0   .     S
Er3     Er5    10.0   1_545     S
Er3     Er2    10.0   1_655     S
Er3     V14    10.0   .     S
Er4     Er6    10.0   1_655     S
Er4     Er5    10.0   .     S
Er4     V14    10.0   .     S
Er5     Er3    10.0   1_565     S
Er5     V7    10.0   .     S
Er6     Er1    10.0   1_565     S
Er6     Er4    10.0   1_455     S
Er6     V7    10.0   .     S
V7     Er11    10.0   .     S
V7     Er9    10.0   .     S
V7     Er13    10.0   .     S
Er8     Er9    10.0   1_544     S
Er8     Er13    10.0   1_654     S
Er8     V14    10.0   .     S
Er9     Er8    10.0   1_566     S
Er9     Er10    10.0   1_556     S
Er10     Er9    10.0   1_554     S
Er10     Er11    10.0   1_654     S
Er10     V14    10.0   .     S
Er11     Er10    10.0   1_456     S
Er11     Er12    10.0   1_566     S
Er12     Er13    10.0   1_554     S
Er12     Er11    10.0   1_544     S
Er12     V14    10.0   .     S
Er13     Er12    10.0   1_556     S
Er13     Er8    10.0   1_456     S
