data_lona
_audit_creation_date              2020-02-02
_audit_creation_method            'Pymatgen'
_symmetry_space_group_name_H-M    'P1'
_symmetry_Int_Tables_number       1
loop_
_symmetry_equiv_pos_as_xyz
  x,y,z
_cell_length_a                    36.3535
_cell_length_b                    36.3535
_cell_length_c                    59.2491
_cell_angle_alpha                 90.0
_cell_angle_beta                 90.0
_cell_angle_gamma                 120.0
loop_
_atom_site_label
_atom_site_type_symbol
_atom_site_fract_x
_atom_site_fract_y
_atom_site_fract_z
V1     V     0.3333   0.6667   0.3344
V2     V     0.3333   0.6667   0.1656
Er3     Er     0.575   0.15   0.9722
Er4     Er     0.85   0.425   0.9722
Er5     Er     0.575   0.425   0.9722
Er6     Er     0.15   0.575   0.0278
Er7     Er     0.425   0.85   0.0278
Er8     Er     0.425   0.575   0.0278
Er9     Er     0.575   0.15   0.5278
Er10     Er     0.575   0.425   0.5278
Er11     Er     0.85   0.425   0.5278
Er12     Er     0.15   0.575   0.4722
Er13     Er     0.425   0.85   0.4722
Er14     Er     0.425   0.575   0.4722
V15     V     0.6667   0.3333   0.8344
V16     V     0.6667   0.3333   0.6656
loop_
_geom_bond_atom_site_label_1
_geom_bond_atom_site_label_2
_geom_bond_distance
_geom_bond_site_symmetry_2
_ccdc_geom_bond_type
V1     Er14    10.0   .     S
V1     Er13    10.0   .     S
V1     Er12    10.0   .     S
V1     V2    10.0   .     S
V2     Er8    10.0   .     S
V2     Er6    10.0   .     S
V2     Er7    10.0   .     S
Er3     Er4    10.0   .     S
Er3     Er5    10.0   .     S
Er3     Er7    10.0   1_546     S
Er3     V15    10.0   .     S
Er4     Er5    10.0   .     S
Er4     Er6    10.0   1_656     S
Er4     V15    10.0   .     S
Er5     Er8    10.0   1_556     S
Er5     V15    10.0   .     S
Er6     Er4    10.0   1_454     S
Er6     Er8    10.0   .     S
Er6     Er7    10.0   .     S
Er7     Er8    10.0   .     S
Er7     Er3    10.0   1_564     S
Er8     Er5    10.0   1_554     S
Er9     Er10    10.0   .     S
Er9     Er11    10.0   .     S
Er9     Er13    10.0   1_545     S
Er9     V16    10.0   .     S
Er10     Er11    10.0   .     S
Er10     Er14    10.0   .     S
Er10     V16    10.0   .     S
Er11     Er12    10.0   1_655     S
Er11     V16    10.0   .     S
Er12     Er11    10.0   1_455     S
Er12     Er14    10.0   .     S
Er12     Er13    10.0   .     S
Er13     Er14    10.0   .     S
Er13     Er9    10.0   1_565     S
V15     V16    10.0   .     S
