data_lta
_audit_creation_date              2020-02-02
_audit_creation_method            'Pymatgen'
_symmetry_space_group_name_H-M    'P1'
_symmetry_Int_Tables_number       1
loop_
_symmetry_equiv_pos_as_xyz
  x,y,z
_cell_length_a                    38.2842
_cell_length_b                    38.2842
_cell_length_c                    38.2842
_cell_angle_alpha                 90.0
_cell_angle_beta                 90.0
_cell_angle_gamma                 90.0
loop_
_atom_site_label
_atom_site_type_symbol
_atom_site_fract_x
_atom_site_fract_y
_atom_site_fract_z
V1     V     0.5   0.3153   0.1306
V2     V     0.5   0.3153   0.8694
V3     V     0.3153   0.5   0.8694
V4     V     0.3153   0.5   0.1306
V5     V     0.6847   0.5   0.8694
V6     V     0.6847   0.5   0.1306
V7     V     0.5   0.6847   0.8694
V8     V     0.5   0.6847   0.1306
V9     V     0.1306   0.5   0.6847
V10     V     0.8694   0.5   0.6847
V11     V     0.8694   0.6847   0.5
V12     V     0.1306   0.6847   0.5
V13     V     0.5   0.8694   0.6847
V14     V     0.5   0.1306   0.6847
V15     V     0.6847   0.1306   0.5
V16     V     0.6847   0.8694   0.5
V17     V     0.5   0.8694   0.3153
V18     V     0.5   0.1306   0.3153
V19     V     0.3153   0.1306   0.5
V20     V     0.3153   0.8694   0.5
V21     V     0.1306   0.5   0.3153
V22     V     0.8694   0.5   0.3153
V23     V     0.1306   0.3153   0.5
V24     V     0.8694   0.3153   0.5
loop_
_geom_bond_atom_site_label_1
_geom_bond_atom_site_label_2
_geom_bond_distance
_geom_bond_site_symmetry_2
_ccdc_geom_bond_type
V1     V2    10.0   1_554     S
V1     V6    10.0   .     S
V1     V4    10.0   .     S
V1     V18    10.0   .     S
V2     V1    10.0   1_556     S
V2     V5    10.0   .     S
V2     V3    10.0   .     S
V2     V14    10.0   .     S
V3     V4    10.0   1_556     S
V3     V7    10.0   .     S
V3     V9    10.0   .     S
V4     V3    10.0   1_554     S
V4     V8    10.0   .     S
V4     V21    10.0   .     S
V5     V6    10.0   1_556     S
V5     V7    10.0   .     S
V5     V10    10.0   .     S
V6     V5    10.0   1_554     S
V6     V8    10.0   .     S
V6     V22    10.0   .     S
V7     V8    10.0   1_556     S
V7     V13    10.0   .     S
V8     V7    10.0   1_554     S
V8     V17    10.0   .     S
V9     V10    10.0   1_455     S
V9     V12    10.0   .     S
V9     V23    10.0   .     S
V10     V9    10.0   1_655     S
V10     V11    10.0   .     S
V10     V24    10.0   .     S
V11     V12    10.0   1_655     S
V11     V16    10.0   .     S
V11     V22    10.0   .     S
V12     V11    10.0   1_455     S
V12     V20    10.0   .     S
V12     V21    10.0   .     S
V13     V14    10.0   1_565     S
V13     V16    10.0   .     S
V13     V20    10.0   .     S
V14     V13    10.0   1_545     S
V14     V15    10.0   .     S
V14     V19    10.0   .     S
V15     V16    10.0   1_545     S
V15     V24    10.0   .     S
V15     V18    10.0   .     S
V16     V15    10.0   1_565     S
V16     V17    10.0   .     S
V17     V18    10.0   1_565     S
V17     V20    10.0   .     S
V18     V17    10.0   1_545     S
V18     V19    10.0   .     S
V19     V20    10.0   1_545     S
V19     V23    10.0   .     S
V20     V19    10.0   1_565     S
V21     V22    10.0   1_455     S
V21     V23    10.0   .     S
V22     V21    10.0   1_655     S
V22     V24    10.0   .     S
V23     V24    10.0   1_455     S
V24     V23    10.0   1_655     S
