data_mdh
_audit_creation_date              2020-02-02
_audit_creation_method            'Pymatgen'
_symmetry_space_group_name_H-M    'P1'
_symmetry_Int_Tables_number       1
loop_
_symmetry_equiv_pos_as_xyz
  x,y,z
_cell_length_a                    33.8565
_cell_length_b                    33.8565
_cell_length_c                    38.9868
_cell_angle_alpha                 90.0
_cell_angle_beta                 90.0
_cell_angle_gamma                 90.0
loop_
_atom_site_label
_atom_site_type_symbol
_atom_site_fract_x
_atom_site_fract_y
_atom_site_fract_z
Er1     Er     0.0   0.6477   0.0
Er2     Er     0.6477   0.0   0.0
Er3     Er     0.0   0.3523   0.0
Er4     Er     0.3523   0.0   0.0
V5     V     0.2172   0.7828   0.1282
V6     V     0.2828   0.7172   0.3718
V7     V     0.7828   0.7828   0.1282
V8     V     0.7172   0.7172   0.3718
V9     V     0.7828   0.2172   0.1282
V10     V     0.7172   0.2828   0.3718
V11     V     0.7172   0.2828   0.6282
V12     V     0.7828   0.2172   0.8718
V13     V     0.2828   0.2828   0.6282
V14     V     0.2172   0.2172   0.8718
V15     V     0.2828   0.7172   0.6282
V16     V     0.2172   0.7828   0.8718
V17     V     0.7172   0.7172   0.6282
V18     V     0.7828   0.7828   0.8718
Er19     Er     0.1477   0.5   0.5
Er20     Er     0.5   0.1477   0.5
Er21     Er     0.8523   0.5   0.5
Er22     Er     0.5   0.8523   0.5
V23     V     0.2172   0.2172   0.1282
V24     V     0.2828   0.2828   0.3718
loop_
_geom_bond_atom_site_label_1
_geom_bond_atom_site_label_2
_geom_bond_distance
_geom_bond_site_symmetry_2
_ccdc_geom_bond_type
Er1     V16    10.0   1_554     S
Er1     V5    10.0   .     S
Er1     V7    10.0   1_455     S
Er1     V18    10.0   1_454     S
Er1     Er3    10.0   .     S
Er2     V9    10.0   .     S
Er2     V12    10.0   1_554     S
Er2     V18    10.0   1_544     S
Er2     V7    10.0   1_545     S
Er2     Er4    10.0   .     S
Er3     V12    10.0   1_454     S
Er3     V9    10.0   1_455     S
Er3     V23    10.0   .     S
Er3     V14    10.0   1_554     S
Er4     V5    10.0   1_545     S
Er4     V16    10.0   1_544     S
Er4     V14    10.0   1_554     S
Er4     V23    10.0   .     S
V5     Er4    10.0   1_565     S
V5     V16    10.0   1_554     S
V5     V6    10.0   .     S
V6     Er19    10.0   .     S
V6     Er22    10.0   .     S
V6     V15    10.0   .     S
V7     Er1    10.0   1_655     S
V7     Er2    10.0   1_565     S
V7     V18    10.0   1_554     S
V7     V8    10.0   .     S
V8     Er21    10.0   .     S
V8     Er22    10.0   .     S
V8     V17    10.0   .     S
V9     Er3    10.0   1_655     S
V9     V12    10.0   1_554     S
V9     V10    10.0   .     S
V10     Er20    10.0   .     S
V10     Er21    10.0   .     S
V10     V11    10.0   .     S
V11     V12    10.0   .     S
V11     Er20    10.0   .     S
V11     Er21    10.0   .     S
V12     Er2    10.0   1_556     S
V12     Er3    10.0   1_656     S
V12     V9    10.0   1_556     S
V13     V14    10.0   .     S
V13     Er19    10.0   .     S
V13     Er20    10.0   .     S
V13     V24    10.0   .     S
V14     Er3    10.0   1_556     S
V14     Er4    10.0   1_556     S
V14     V23    10.0   1_556     S
V15     V16    10.0   .     S
V15     Er19    10.0   .     S
V15     Er22    10.0   .     S
V16     Er1    10.0   1_556     S
V16     Er4    10.0   1_566     S
V16     V5    10.0   1_556     S
V17     V18    10.0   .     S
V17     Er21    10.0   .     S
V17     Er22    10.0   .     S
V18     Er1    10.0   1_656     S
V18     Er2    10.0   1_566     S
V18     V7    10.0   1_556     S
Er19     V24    10.0   .     S
Er19     Er21    10.0   1_455     S
Er20     V24    10.0   .     S
Er20     Er22    10.0   1_545     S
Er21     Er19    10.0   1_655     S
Er22     Er20    10.0   1_565     S
V23     V14    10.0   1_554     S
V23     V24    10.0   .     S
