data_mgg
_audit_creation_date              2020-02-02
_audit_creation_method            'Pymatgen'
_symmetry_space_group_name_H-M    'P1'
_symmetry_Int_Tables_number       1
loop_
_symmetry_equiv_pos_as_xyz
  x,y,z
_cell_length_a                    31.5477
_cell_length_b                    31.5477
_cell_length_c                    31.5455
_cell_angle_alpha                 90.0
_cell_angle_beta                 90.0
_cell_angle_gamma                 90.0
loop_
_atom_site_label
_atom_site_type_symbol
_atom_site_fract_x
_atom_site_fract_y
_atom_site_fract_z
Er1     Er     0.183   0.5   0.1585
Er2     Er     0.183   0.5   0.8415
Er3     Er     0.5   0.183   0.1585
Er4     Er     0.5   0.183   0.8415
Er5     Er     0.817   0.5   0.1585
Er6     Er     0.817   0.5   0.8415
Er7     Er     0.5   0.817   0.1585
Er8     Er     0.5   0.817   0.8415
V9     V     0.5   0.5   0.8416
V10     V     0.5   0.5   0.1584
Er11     Er     0.317   0.0   0.3415
Er12     Er     0.317   0.0   0.6585
Er13     Er     0.0   0.683   0.3415
Er14     Er     0.0   0.683   0.6585
Er15     Er     0.683   0.0   0.3415
Er16     Er     0.683   0.0   0.6585
Er17     Er     0.0   0.317   0.3415
Er18     Er     0.0   0.317   0.6585
V19     V     0.0   0.0   0.3416
V20     V     0.0   0.0   0.6584
loop_
_geom_bond_atom_site_label_1
_geom_bond_atom_site_label_2
_geom_bond_distance
_geom_bond_site_symmetry_2
_ccdc_geom_bond_type
Er1     Er2    10.0   1_554     S
Er1     V10    10.0   .     S
Er1     Er13    10.0   .     S
Er1     Er17    10.0   .     S
Er2     Er1    10.0   1_556     S
Er2     V9    10.0   .     S
Er2     Er14    10.0   .     S
Er2     Er18    10.0   .     S
Er3     Er4    10.0   1_554     S
Er3     V10    10.0   .     S
Er3     Er15    10.0   .     S
Er3     Er11    10.0   .     S
Er4     Er3    10.0   1_556     S
Er4     V9    10.0   .     S
Er4     Er16    10.0   .     S
Er4     Er12    10.0   .     S
Er5     Er6    10.0   1_554     S
Er5     V10    10.0   .     S
Er5     Er13    10.0   1_655     S
Er5     Er17    10.0   1_655     S
Er6     Er5    10.0   1_556     S
Er6     V9    10.0   .     S
Er6     Er18    10.0   1_655     S
Er6     Er14    10.0   1_655     S
Er7     Er8    10.0   1_554     S
Er7     V10    10.0   .     S
Er7     Er11    10.0   1_565     S
Er7     Er15    10.0   1_565     S
Er8     Er7    10.0   1_556     S
Er8     V9    10.0   .     S
Er8     Er12    10.0   1_565     S
Er8     Er16    10.0   1_565     S
Er11     Er12    10.0   .     S
Er11     V19    10.0   .     S
Er11     Er7    10.0   1_545     S
Er12     V20    10.0   .     S
Er12     Er8    10.0   1_545     S
Er13     Er14    10.0   .     S
Er13     V19    10.0   1_565     S
Er13     Er5    10.0   1_455     S
Er14     V20    10.0   1_565     S
Er14     Er6    10.0   1_455     S
Er15     Er16    10.0   .     S
Er15     V19    10.0   1_655     S
Er15     Er7    10.0   1_545     S
Er16     V20    10.0   1_655     S
Er16     Er8    10.0   1_545     S
Er17     Er18    10.0   .     S
Er17     V19    10.0   .     S
Er17     Er5    10.0   1_455     S
Er18     V20    10.0   .     S
Er18     Er6    10.0   1_455     S
V19     Er15    10.0   1_455     S
V19     Er13    10.0   1_545     S
V20     Er14    10.0   1_545     S
V20     Er16    10.0   1_455     S
