data_mjt
_audit_creation_date              2020-02-02
_audit_creation_method            'Pymatgen'
_symmetry_space_group_name_H-M    'P1'
_symmetry_Int_Tables_number       1
loop_
_symmetry_equiv_pos_as_xyz
  x,y,z
_cell_length_a                    28.2843
_cell_length_b                    28.2843
_cell_length_c                    28.2843
_cell_angle_alpha                 90.0
_cell_angle_beta                 90.0
_cell_angle_gamma                 90.0
loop_
_atom_site_label
_atom_site_type_symbol
_atom_site_fract_x
_atom_site_fract_y
_atom_site_fract_z
V1     V     0.0   0.0   0.5
Er2     Er     0.0   0.25   0.25
Er3     Er     0.75   0.0   0.25
Er4     Er     0.0   0.75   0.25
Er5     Er     0.25   0.0   0.25
Er6     Er     0.0   0.75   0.75
Er7     Er     0.25   0.0   0.75
Er8     Er     0.0   0.25   0.75
Er9     Er     0.75   0.0   0.75
V10     V     0.5   0.0   0.0
V11     V     0.0   0.5   0.0
Er12     Er     0.25   0.25   0.0
Er13     Er     0.25   0.75   0.0
Er14     Er     0.75   0.25   0.0
Er15     Er     0.75   0.75   0.0
Er16     Er     0.25   0.25   0.5
V17     V     0.0   0.5   0.5
Er18     Er     0.75   0.5   0.75
V19     V     0.5   0.5   0.0
Er20     Er     0.5   0.75   0.75
Er21     Er     0.25   0.5   0.75
Er22     Er     0.5   0.25   0.75
Er23     Er     0.5   0.25   0.25
Er24     Er     0.75   0.5   0.25
Er25     Er     0.5   0.75   0.25
Er26     Er     0.25   0.5   0.25
V27     V     0.5   0.0   0.5
Er28     Er     0.75   0.75   0.5
Er29     Er     0.75   0.25   0.5
Er30     Er     0.25   0.75   0.5
loop_
_geom_bond_atom_site_label_1
_geom_bond_atom_site_label_2
_geom_bond_distance
_geom_bond_site_symmetry_2
_ccdc_geom_bond_type
V1     Er2    10.0   .     S
V1     Er3    10.0   1_455     S
V1     Er4    10.0   1_545     S
V1     Er5    10.0   .     S
V1     Er6    10.0   1_545     S
V1     Er7    10.0   .     S
V1     Er8    10.0   .     S
V1     Er9    10.0   1_455     S
V1     Er16    10.0   .     S
V1     Er29    10.0   1_455     S
V1     Er28    10.0   1_445     S
V1     Er30    10.0   1_545     S
Er2     V11    10.0   .     S
Er2     Er16    10.0   .     S
Er2     Er24    10.0   1_455     S
Er2     Er29    10.0   1_455     S
Er2     Er26    10.0   .     S
Er2     V17    10.0   .     S
Er2     Er5    10.0   .     S
Er2     Er3    10.0   1_455     S
Er2     Er14    10.0   1_455     S
Er2     Er12    10.0   .     S
Er3     V1    10.0   1_655     S
Er3     V10    10.0   .     S
Er3     Er29    10.0   .     S
Er3     Er25    10.0   1_545     S
Er3     Er28    10.0   1_545     S
Er3     Er23    10.0   .     S
Er3     V27    10.0   .     S
Er3     Er2    10.0   1_655     S
Er3     Er4    10.0   1_645     S
Er3     Er15    10.0   1_545     S
Er3     Er14    10.0   .     S
Er4     V1    10.0   1_565     S
Er4     V11    10.0   .     S
Er4     Er28    10.0   1_455     S
Er4     Er26    10.0   .     S
Er4     Er30    10.0   .     S
Er4     Er24    10.0   1_455     S
Er4     V17    10.0   .     S
Er4     Er3    10.0   1_465     S
Er4     Er5    10.0   1_565     S
Er4     Er13    10.0   .     S
Er4     Er15    10.0   1_455     S
Er5     V10    10.0   .     S
Er5     Er30    10.0   1_545     S
Er5     Er23    10.0   .     S
Er5     Er16    10.0   .     S
Er5     Er25    10.0   1_545     S
Er5     V27    10.0   .     S
Er5     Er4    10.0   1_545     S
Er5     Er12    10.0   .     S
Er5     Er13    10.0   1_545     S
Er6     V1    10.0   1_565     S
Er6     V11    10.0   1_556     S
Er6     Er30    10.0   .     S
Er6     Er18    10.0   1_455     S
Er6     Er28    10.0   1_455     S
Er6     Er21    10.0   .     S
Er6     V17    10.0   .     S
Er6     Er7    10.0   1_565     S
Er6     Er9    10.0   1_465     S
Er6     Er15    10.0   1_456     S
Er6     Er13    10.0   1_556     S
Er7     V10    10.0   1_556     S
Er7     Er16    10.0   .     S
Er7     Er20    10.0   1_545     S
Er7     Er30    10.0   1_545     S
Er7     Er22    10.0   .     S
Er7     V27    10.0   .     S
Er7     Er6    10.0   1_545     S
Er7     Er8    10.0   .     S
Er7     Er13    10.0   1_546     S
Er7     Er12    10.0   1_556     S
Er8     V11    10.0   1_556     S
Er8     Er29    10.0   1_455     S
Er8     Er21    10.0   .     S
Er8     Er16    10.0   .     S
Er8     Er18    10.0   1_455     S
Er8     V17    10.0   .     S
Er8     Er9    10.0   1_455     S
Er8     Er12    10.0   1_556     S
Er8     Er14    10.0   1_456     S
Er9     V1    10.0   1_655     S
Er9     V10    10.0   1_556     S
Er9     Er28    10.0   1_545     S
Er9     Er22    10.0   .     S
Er9     Er29    10.0   .     S
Er9     Er20    10.0   1_545     S
Er9     V27    10.0   .     S
Er9     Er8    10.0   1_655     S
Er9     Er6    10.0   1_645     S
Er9     Er14    10.0   1_556     S
Er9     Er15    10.0   1_546     S
V10     Er7    10.0   1_554     S
V10     Er9    10.0   1_554     S
V10     Er12    10.0   .     S
V10     Er15    10.0   1_545     S
V10     Er13    10.0   1_545     S
V10     Er14    10.0   .     S
V10     Er23    10.0   .     S
V10     Er25    10.0   1_545     S
V10     Er20    10.0   1_544     S
V10     Er22    10.0   1_554     S
V11     Er8    10.0   1_554     S
V11     Er6    10.0   1_554     S
V11     Er12    10.0   .     S
V11     Er13    10.0   .     S
V11     Er14    10.0   1_455     S
V11     Er15    10.0   1_455     S
V11     Er24    10.0   1_455     S
V11     Er26    10.0   .     S
V11     Er21    10.0   1_554     S
V11     Er18    10.0   1_454     S
Er12     Er26    10.0   .     S
Er12     Er22    10.0   1_554     S
Er12     Er23    10.0   .     S
Er12     Er21    10.0   1_554     S
Er12     V19    10.0   .     S
Er12     Er8    10.0   1_554     S
Er12     Er7    10.0   1_554     S
Er13     V10    10.0   1_565     S
Er13     Er21    10.0   1_554     S
Er13     Er25    10.0   .     S
Er13     Er26    10.0   .     S
Er13     Er20    10.0   1_554     S
Er13     V19    10.0   .     S
Er13     Er7    10.0   1_564     S
Er13     Er6    10.0   1_554     S
Er13     Er5    10.0   1_565     S
Er14     V11    10.0   1_655     S
Er14     Er18    10.0   1_554     S
Er14     Er23    10.0   .     S
Er14     Er24    10.0   .     S
Er14     Er22    10.0   1_554     S
Er14     V19    10.0   .     S
Er14     Er2    10.0   1_655     S
Er14     Er9    10.0   1_554     S
Er14     Er8    10.0   1_654     S
Er15     V10    10.0   1_565     S
Er15     V11    10.0   1_655     S
Er15     Er20    10.0   1_554     S
Er15     Er24    10.0   .     S
Er15     Er18    10.0   1_554     S
Er15     Er25    10.0   .     S
Er15     V19    10.0   .     S
Er15     Er3    10.0   1_565     S
Er15     Er6    10.0   1_654     S
Er15     Er9    10.0   1_564     S
Er15     Er4    10.0   1_655     S
Er16     V17    10.0   .     S
Er16     V27    10.0   .     S
Er16     Er21    10.0   .     S
Er16     Er23    10.0   .     S
Er16     Er26    10.0   .     S
Er16     Er22    10.0   .     S
V17     Er18    10.0   1_455     S
V17     Er21    10.0   .     S
V17     Er24    10.0   1_455     S
V17     Er26    10.0   .     S
V17     Er28    10.0   1_455     S
V17     Er29    10.0   1_455     S
V17     Er30    10.0   .     S
Er18     V17    10.0   1_655     S
Er18     V19    10.0   1_556     S
Er18     Er6    10.0   1_655     S
Er18     Er14    10.0   1_556     S
Er18     Er8    10.0   1_655     S
Er18     Er15    10.0   1_556     S
Er18     V11    10.0   1_656     S
Er18     Er20    10.0   .     S
Er18     Er22    10.0   .     S
Er18     Er28    10.0   .     S
Er18     Er29    10.0   .     S
V19     Er18    10.0   1_554     S
V19     Er20    10.0   1_554     S
V19     Er21    10.0   1_554     S
V19     Er22    10.0   1_554     S
V19     Er23    10.0   .     S
V19     Er24    10.0   .     S
V19     Er25    10.0   .     S
V19     Er26    10.0   .     S
Er20     V19    10.0   1_556     S
Er20     V27    10.0   1_565     S
Er20     Er7    10.0   1_565     S
Er20     Er15    10.0   1_556     S
Er20     Er9    10.0   1_565     S
Er20     Er13    10.0   1_556     S
Er20     V10    10.0   1_566     S
Er20     Er21    10.0   .     S
Er20     Er30    10.0   .     S
Er20     Er28    10.0   .     S
Er21     V19    10.0   1_556     S
Er21     Er13    10.0   1_556     S
Er21     Er12    10.0   1_556     S
Er21     V11    10.0   1_556     S
Er21     Er22    10.0   .     S
Er21     Er30    10.0   .     S
Er22     V19    10.0   1_556     S
Er22     V27    10.0   .     S
Er22     Er12    10.0   1_556     S
Er22     Er14    10.0   1_556     S
Er22     V10    10.0   1_556     S
Er22     Er29    10.0   .     S
Er23     V27    10.0   .     S
Er23     Er24    10.0   .     S
Er23     Er26    10.0   .     S
Er23     Er29    10.0   .     S
Er24     V17    10.0   1_655     S
Er24     Er2    10.0   1_655     S
Er24     Er4    10.0   1_655     S
Er24     V11    10.0   1_655     S
Er24     Er25    10.0   .     S
Er24     Er29    10.0   .     S
Er24     Er28    10.0   .     S
Er25     V27    10.0   1_565     S
Er25     Er3    10.0   1_565     S
Er25     Er5    10.0   1_565     S
Er25     V10    10.0   1_565     S
Er25     Er26    10.0   .     S
Er25     Er28    10.0   .     S
Er25     Er30    10.0   .     S
Er26     Er30    10.0   .     S
V27     Er20    10.0   1_545     S
V27     Er25    10.0   1_545     S
V27     Er28    10.0   1_545     S
V27     Er29    10.0   .     S
V27     Er30    10.0   1_545     S
Er28     V27    10.0   1_565     S
Er28     V17    10.0   1_655     S
Er28     Er4    10.0   1_655     S
Er28     Er9    10.0   1_565     S
Er28     Er6    10.0   1_655     S
Er28     Er3    10.0   1_565     S
Er28     V1    10.0   1_665     S
Er29     V17    10.0   1_655     S
Er29     Er8    10.0   1_655     S
Er29     Er2    10.0   1_655     S
Er29     V1    10.0   1_655     S
Er30     V27    10.0   1_565     S
Er30     Er5    10.0   1_565     S
Er30     Er7    10.0   1_565     S
Er30     V1    10.0   1_565     S
