data_mov
_audit_creation_date              2020-02-02
_audit_creation_method            'Pymatgen'
_symmetry_space_group_name_H-M    'P1'
_symmetry_Int_Tables_number       1
loop_
_symmetry_equiv_pos_as_xyz
  x,y,z
_cell_length_a                    231.8457
_cell_length_b                    231.8457
_cell_length_c                    231.8457
_cell_angle_alpha                 90.0
_cell_angle_beta                 90.0
_cell_angle_gamma                 90.0
loop_
_atom_site_label
_atom_site_type_symbol
_atom_site_fract_x
_atom_site_fract_y
_atom_site_fract_z
Mg1     Mg     0.5546   0.5851   0.4214
Mg2     Mg     0.5851   0.5546   0.4214
Al3     Al     0.5953   0.5953   0.4113
Mg4     Mg     0.5851   0.4214   0.5546
Mg5     Mg     0.5546   0.4214   0.5851
Al6     Al     0.5953   0.4113   0.5953
Mg7     Mg     0.1954   0.3286   0.5851
Mg8     Mg     0.1649   0.3286   0.5546
Al9     Al     0.1547   0.3387   0.5953
Mg10     Mg     0.6954   0.5851   0.8286
Mg11     Mg     0.6649   0.5546   0.8286
Al12     Al     0.6547   0.5953   0.8387
Mg13     Mg     0.1714   0.8046   0.9149
Mg14     Mg     0.1714   0.8351   0.9454
Al15     Al     0.1613   0.8453   0.9047
Mg16     Mg     0.6954   0.4214   0.6649
Mg17     Mg     0.6649   0.4214   0.6954
Al18     Al     0.6547   0.4113   0.6547
Mg19     Mg     0.6649   0.6954   0.4214
Mg20     Mg     0.6954   0.6649   0.4214
Al21     Al     0.6547   0.6547   0.4113
Mg22     Mg     0.4214   0.6954   0.6649
Mg23     Mg     0.4214   0.6649   0.6954
Al24     Al     0.4113   0.6547   0.6547
Mg25     Mg     0.5851   0.3286   0.1954
Mg26     Mg     0.5546   0.3286   0.1649
Al27     Al     0.5953   0.3387   0.1547
Mg28     Mg     0.5851   0.1954   0.3286
Mg29     Mg     0.5546   0.1649   0.3286
Al30     Al     0.5953   0.1547   0.3387
Mg31     Mg     0.3286   0.5851   0.1954
Mg32     Mg     0.3286   0.5546   0.1649
Al33     Al     0.3387   0.5953   0.1547
Mg34     Mg     0.5851   0.8286   0.6954
Mg35     Mg     0.5546   0.8286   0.6649
Al36     Al     0.5953   0.8387   0.6547
Mg37     Mg     0.8286   0.5851   0.6954
Mg38     Mg     0.8286   0.5546   0.6649
Al39     Al     0.8387   0.5953   0.6547
Mg40     Mg     0.5851   0.6954   0.8286
Mg41     Mg     0.5546   0.6649   0.8286
Al42     Al     0.5953   0.6547   0.8387
Mg43     Mg     0.6954   0.8286   0.5851
Mg44     Mg     0.6649   0.8286   0.5546
Al45     Al     0.6547   0.8387   0.5953
Mg46     Mg     0.0851   0.4214   0.0546
Mg47     Mg     0.0546   0.4214   0.0851
Al48     Al     0.0953   0.4113   0.0953
Mg49     Mg     0.4214   0.0546   0.0851
Mg50     Mg     0.4214   0.0851   0.0546
Al51     Al     0.4113   0.0953   0.0953
Mg52     Mg     0.0546   0.0851   0.4214
Mg53     Mg     0.0851   0.0546   0.4214
Al54     Al     0.0953   0.0953   0.4113
Mg55     Mg     0.8046   0.0786   0.3351
Mg56     Mg     0.8351   0.0786   0.3046
Al57     Al     0.8453   0.0887   0.3453
Mg58     Mg     0.3351   0.8046   0.0786
Mg59     Mg     0.3046   0.8351   0.0786
Al60     Al     0.3453   0.8453   0.0887
Mg61     Mg     0.4214   0.1954   0.1649
Mg62     Mg     0.4214   0.1649   0.1954
Al63     Al     0.4113   0.1547   0.1547
Mg64     Mg     0.8286   0.0546   0.1649
Mg65     Mg     0.8286   0.0851   0.1954
Al66     Al     0.8387   0.0953   0.1547
Mg67     Mg     0.8286   0.1649   0.0546
Mg68     Mg     0.8286   0.1954   0.0851
Al69     Al     0.8387   0.1547   0.0953
Mg70     Mg     0.1649   0.9214   0.6954
Mg71     Mg     0.1954   0.9214   0.6649
Al72     Al     0.1547   0.9113   0.6547
Mg73     Mg     0.0851   0.8286   0.1954
Mg74     Mg     0.0546   0.8286   0.1649
Al75     Al     0.0953   0.8387   0.1547
Mg76     Mg     0.8351   0.8046   0.5786
Mg77     Mg     0.8046   0.8351   0.5786
Al78     Al     0.8453   0.8453   0.5887
Mg79     Mg     0.9214   0.6954   0.1649
Mg80     Mg     0.9214   0.6649   0.1954
Al81     Al     0.9113   0.6547   0.1547
Mg82     Mg     0.5786   0.8046   0.8351
Mg83     Mg     0.5786   0.8351   0.8046
Al84     Al     0.5887   0.8453   0.8453
Mg85     Mg     0.1954   0.8286   0.0851
Mg86     Mg     0.1649   0.8286   0.0546
Al87     Al     0.1547   0.8387   0.0953
Mg88     Mg     0.8046   0.5786   0.8351
Mg89     Mg     0.8351   0.5786   0.8046
Al90     Al     0.8453   0.5887   0.8453
Mg91     Mg     0.0851   0.1954   0.8286
Mg92     Mg     0.0546   0.1649   0.8286
Al93     Al     0.0953   0.1547   0.8387
Mg94     Mg     0.5851   0.9214   0.0546
Mg95     Mg     0.5546   0.9214   0.0851
Al96     Al     0.5953   0.9113   0.0953
Mg97     Mg     0.9214   0.5851   0.0546
Mg98     Mg     0.9214   0.5546   0.0851
Al99     Al     0.9113   0.5953   0.0953
Mg100     Mg     0.5851   0.0546   0.9214
Mg101     Mg     0.5546   0.0851   0.9214
Al102     Al     0.5953   0.0953   0.9113
Mg103     Mg     0.0546   0.9214   0.5851
Mg104     Mg     0.0851   0.9214   0.5546
Al105     Al     0.0953   0.9113   0.5953
Mg106     Mg     0.0546   0.5851   0.9214
Mg107     Mg     0.0851   0.5546   0.9214
Al108     Al     0.0953   0.5953   0.9113
Mg109     Mg     0.0786   0.4454   0.9149
Mg110     Mg     0.0786   0.4149   0.9454
Al111     Al     0.0887   0.4047   0.9047
Mg112     Mg     0.6954   0.3286   0.0851
Mg113     Mg     0.6649   0.3286   0.0546
Al114     Al     0.6547   0.3387   0.0953
Mg115     Mg     0.0851   0.6954   0.3286
Mg116     Mg     0.0546   0.6649   0.3286
Al117     Al     0.0953   0.6547   0.3387
Mg118     Mg     0.3286   0.0851   0.6954
Mg119     Mg     0.3286   0.0546   0.6649
Al120     Al     0.3387   0.0953   0.6547
Mg121     Mg     0.3046   0.4149   0.1714
Mg122     Mg     0.3351   0.4454   0.1714
Al123     Al     0.3453   0.4047   0.1613
Mg124     Mg     0.6714   0.3046   0.9149
Mg125     Mg     0.6714   0.3351   0.9454
Al126     Al     0.6613   0.3453   0.9047
Mg127     Mg     0.6954   0.0851   0.3286
Mg128     Mg     0.6649   0.0546   0.3286
Al129     Al     0.6547   0.0953   0.3387
Mg130     Mg     0.3286   0.6954   0.0851
Mg131     Mg     0.3286   0.6649   0.0546
Al132     Al     0.3387   0.6547   0.0953
Mg133     Mg     0.0851   0.3286   0.6954
Mg134     Mg     0.0546   0.3286   0.6649
Al135     Al     0.0953   0.3387   0.6547
Mg136     Mg     0.1714   0.4454   0.3351
Mg137     Mg     0.1714   0.4149   0.3046
Al138     Al     0.1613   0.4047   0.3453
Mg139     Mg     0.1714   0.3046   0.4149
Mg140     Mg     0.1714   0.3351   0.4454
Al141     Al     0.1613   0.3453   0.4047
Mg142     Mg     0.4454   0.3351   0.1714
Mg143     Mg     0.4149   0.3046   0.1714
Al144     Al     0.4047   0.3453   0.1613
Mg145     Mg     0.4454   0.1714   0.3351
Mg146     Mg     0.4149   0.1714   0.3046
Al147     Al     0.4047   0.1613   0.3453
Mg148     Mg     0.8046   0.4149   0.6714
Mg149     Mg     0.8351   0.4454   0.6714
Al150     Al     0.8453   0.4047   0.6613
Mg151     Mg     0.6954   0.1649   0.9214
Mg152     Mg     0.6649   0.1954   0.9214
Al153     Al     0.6547   0.1547   0.9113
Mg154     Mg     0.9214   0.1649   0.6954
Mg155     Mg     0.9214   0.1954   0.6649
Al156     Al     0.9113   0.1547   0.6547
Mg157     Mg     0.0786   0.3351   0.8046
Mg158     Mg     0.0786   0.3046   0.8351
Al159     Al     0.0887   0.3453   0.8453
Mg160     Mg     0.8046   0.3351   0.0786
Mg161     Mg     0.8351   0.3046   0.0786
Al162     Al     0.8453   0.3453   0.0887
Mg163     Mg     0.4149   0.4454   0.5786
Mg164     Mg     0.4454   0.4149   0.5786
Al165     Al     0.4047   0.4047   0.5887
Mg166     Mg     0.4149   0.8046   0.6714
Mg167     Mg     0.4454   0.8351   0.6714
Al168     Al     0.4047   0.8453   0.6613
Mg169     Mg     0.4454   0.5786   0.4149
Mg170     Mg     0.4149   0.5786   0.4454
Al171     Al     0.4047   0.5887   0.4047
Mg172     Mg     0.4149   0.6714   0.8046
Mg173     Mg     0.4454   0.6714   0.8351
Al174     Al     0.4047   0.6613   0.8453
Mg175     Mg     0.3046   0.3351   0.5786
Mg176     Mg     0.3351   0.3046   0.5786
Al177     Al     0.3453   0.3453   0.5887
Mg178     Mg     0.8046   0.6714   0.4149
Mg179     Mg     0.8351   0.6714   0.4454
Al180     Al     0.8453   0.6613   0.4047
Mg181     Mg     0.6714   0.4149   0.8046
Mg182     Mg     0.6714   0.4454   0.8351
Al183     Al     0.6613   0.4047   0.8453
Mg184     Mg     0.5786   0.4149   0.4454
Mg185     Mg     0.5786   0.4454   0.4149
Al186     Al     0.5887   0.4047   0.4047
Mg187     Mg     0.6714   0.8046   0.4149
Mg188     Mg     0.6714   0.8351   0.4454
Al189     Al     0.6613   0.8453   0.4047
Mg190     Mg     0.1954   0.5851   0.3286
Mg191     Mg     0.1649   0.5546   0.3286
Al192     Al     0.1547   0.5953   0.3387
Mg193     Mg     0.4214   0.5851   0.5546
Mg194     Mg     0.4214   0.5546   0.5851
Al195     Al     0.4113   0.5953   0.5953
Mg196     Mg     0.3046   0.9149   0.6714
Mg197     Mg     0.3351   0.9454   0.6714
Al198     Al     0.3453   0.9047   0.6613
Mg199     Mg     0.1649   0.1954   0.4214
Mg200     Mg     0.1954   0.1649   0.4214
Al201     Al     0.1547   0.1547   0.4113
Mg202     Mg     0.1954   0.4214   0.1649
Mg203     Mg     0.1649   0.4214   0.1954
Al204     Al     0.1547   0.4113   0.1547
Mg205     Mg     0.3046   0.1714   0.4149
Mg206     Mg     0.3351   0.1714   0.4454
Al207     Al     0.3453   0.1613   0.4047
Mg208     Mg     0.4454   0.0786   0.9149
Mg209     Mg     0.4149   0.0786   0.9454
Al210     Al     0.4047   0.0887   0.9047
Mg211     Mg     0.0786   0.9149   0.4454
Mg212     Mg     0.0786   0.9454   0.4149
Al213     Al     0.0887   0.9047   0.4047
Mg214     Mg     0.4454   0.9149   0.0786
Mg215     Mg     0.4149   0.9454   0.0786
Al216     Al     0.4047   0.9047   0.0887
Mg217     Mg     0.1649   0.0546   0.8286
Mg218     Mg     0.1954   0.0851   0.8286
Al219     Al     0.1547   0.0953   0.8387
Mg220     Mg     0.9149   0.4454   0.0786
Mg221     Mg     0.9454   0.4149   0.0786
Al222     Al     0.9047   0.4047   0.0887
Mg223     Mg     0.9149   0.0786   0.4454
Mg224     Mg     0.9454   0.0786   0.4149
Al225     Al     0.9047   0.0887   0.4047
Mg226     Mg     0.3046   0.6714   0.9149
Mg227     Mg     0.3351   0.6714   0.9454
Al228     Al     0.3453   0.6613   0.9047
Mg229     Mg     0.9149   0.3046   0.6714
Mg230     Mg     0.9454   0.3351   0.6714
Al231     Al     0.9047   0.3453   0.6613
Mg232     Mg     0.9149   0.1714   0.8046
Mg233     Mg     0.9454   0.1714   0.8351
Al234     Al     0.9047   0.1613   0.8453
Mg235     Mg     0.3286   0.1954   0.5851
Mg236     Mg     0.3286   0.1649   0.5546
Al237     Al     0.3387   0.1547   0.5953
Mg238     Mg     0.6714   0.9454   0.3351
Mg239     Mg     0.6714   0.9149   0.3046
Al240     Al     0.6613   0.9047   0.3453
Mg241     Mg     0.9149   0.6714   0.3046
Mg242     Mg     0.9454   0.6714   0.3351
Al243     Al     0.9047   0.6613   0.3453
Mg244     Mg     0.8046   0.9149   0.1714
Mg245     Mg     0.8351   0.9454   0.1714
Al246     Al     0.8453   0.9047   0.1613
Mg247     Mg     0.5786   0.9454   0.9149
Mg248     Mg     0.5786   0.9149   0.9454
Al249     Al     0.5887   0.9047   0.9047
Mg250     Mg     0.9454   0.5786   0.9149
Mg251     Mg     0.9149   0.5786   0.9454
Al252     Al     0.9047   0.5887   0.9047
Mg253     Mg     0.9149   0.9454   0.5786
Mg254     Mg     0.9454   0.9149   0.5786
Al255     Al     0.9047   0.9047   0.5887
Mg256     Mg     0.9214   0.0546   0.5851
Mg257     Mg     0.9214   0.0851   0.5546
Al258     Al     0.9113   0.0953   0.5953
Mg259     Mg     0.3351   0.0786   0.8046
Mg260     Mg     0.3046   0.0786   0.8351
Al261     Al     0.3453   0.0887   0.8453
Mg262     Mg     0.1714   0.9149   0.8046
Mg263     Mg     0.1714   0.9454   0.8351
Al264     Al     0.1613   0.9047   0.8453
Mg265     Mg     0.0786   0.8046   0.3351
Mg266     Mg     0.0786   0.8351   0.3046
Al267     Al     0.0887   0.8453   0.3453
Mg268     Mg     0.8046   0.1714   0.9149
Mg269     Mg     0.8351   0.1714   0.9454
Al270     Al     0.8453   0.1613   0.9047
Mg271     Mg     0.9149   0.8046   0.1714
Mg272     Mg     0.9454   0.8351   0.1714
Al273     Al     0.9047   0.8453   0.1613
Mg274     Mg     0.8286   0.6954   0.5851
Mg275     Mg     0.8286   0.6649   0.5546
Al276     Al     0.8387   0.6547   0.5953
Mg277     Mg     0.5786   0.3351   0.3046
Mg278     Mg     0.5786   0.3046   0.3351
Al279     Al     0.5887   0.3453   0.3453
Mg280     Mg     0.3046   0.5786   0.3351
Mg281     Mg     0.3351   0.5786   0.3046
Al282     Al     0.3453   0.5887   0.3453
Mg283     Mg     0.1649   0.6954   0.9214
Mg284     Mg     0.1954   0.6649   0.9214
Al285     Al     0.1547   0.6547   0.9113
Mg286     Mg     0.6954   0.9214   0.1649
Mg287     Mg     0.6649   0.9214   0.1954
Al288     Al     0.6547   0.9113   0.1547
N289     N     0.4545   0.1149   0.985
N290     N     0.485   0.1149   0.9545
O291     O     0.4706   0.1522   0.9706
N292     N     0.1149   0.985   0.4545
N293     N     0.1149   0.9545   0.485
O294     O     0.1522   0.9706   0.4706
N295     N     0.1149   0.4545   0.985
N296     N     0.1149   0.485   0.9545
O297     O     0.1522   0.4706   0.9706
N298     N     0.4545   0.985   0.1149
N299     N     0.485   0.9545   0.1149
O300     O     0.4706   0.9706   0.1522
N301     N     0.1149   0.765   0.2955
N302     N     0.1149   0.7955   0.265
O303     O     0.1522   0.7794   0.2794
N304     N     0.985   0.1149   0.4545
N305     N     0.9545   0.1149   0.485
O306     O     0.9706   0.1522   0.4706
N307     N     0.985   0.4545   0.1149
N308     N     0.9545   0.485   0.1149
O309     O     0.9706   0.4706   0.1522
N310     N     0.1149   0.2955   0.765
N311     N     0.1149   0.265   0.7955
O312     O     0.1522   0.2794   0.7794
N313     N     0.765   0.2955   0.1149
N314     N     0.7955   0.265   0.1149
O315     O     0.7794   0.2794   0.1522
N316     N     0.2955   0.1351   0.485
N317     N     0.265   0.1351   0.4545
O318     O     0.2794   0.0978   0.4706
N319     N     0.4545   0.1351   0.265
N320     N     0.485   0.1351   0.2955
O321     O     0.4706   0.0978   0.2794
N322     N     0.265   0.4545   0.1351
N323     N     0.2955   0.485   0.1351
O324     O     0.2794   0.4706   0.0978
N325     N     0.7955   0.1351   0.985
N326     N     0.765   0.1351   0.9545
O327     O     0.7794   0.0978   0.9706
N328     N     0.985   0.7955   0.1351
N329     N     0.9545   0.765   0.1351
O330     O     0.9706   0.7794   0.0978
N331     N     0.2045   0.235   0.3851
N332     N     0.235   0.2045   0.3851
O333     O     0.2206   0.2206   0.3478
N334     N     0.235   0.3851   0.2045
N335     N     0.2045   0.3851   0.235
O336     O     0.2206   0.3478   0.2206
N337     N     0.3851   0.2045   0.235
N338     N     0.3851   0.235   0.2045
O339     O     0.3478   0.2206   0.2206
N340     N     0.5455   0.515   0.3851
N341     N     0.515   0.5455   0.3851
O342     O     0.5294   0.5294   0.3478
N343     N     0.7045   0.3649   0.015
N344     N     0.735   0.3649   0.0455
O345     O     0.7206   0.4022   0.0294
N346     N     0.735   0.3851   0.7045
N347     N     0.7045   0.3851   0.735
O348     O     0.7206   0.3478   0.7206
N349     N     0.515   0.3851   0.5455
N350     N     0.5455   0.3851   0.515
O351     O     0.5294   0.3478   0.5294
N352     N     0.5455   0.235   0.3649
N353     N     0.515   0.2045   0.3649
O354     O     0.5294   0.2206   0.4022
N355     N     0.2045   0.515   0.3649
N356     N     0.235   0.5455   0.3649
O357     O     0.2206   0.5294   0.4022
N358     N     0.3649   0.515   0.2045
N359     N     0.3649   0.5455   0.235
O360     O     0.4022   0.5294   0.2206
N361     N     0.3851   0.735   0.7045
N362     N     0.3851   0.7045   0.735
O363     O     0.3478   0.7206   0.7206
N364     N     0.3649   0.735   0.0455
N365     N     0.3649   0.7045   0.015
O366     O     0.4022   0.7206   0.0294
N367     N     0.7045   0.735   0.3851
N368     N     0.735   0.7045   0.3851
O369     O     0.7206   0.7206   0.3478
N370     N     0.3851   0.515   0.5455
N371     N     0.3851   0.5455   0.515
O372     O     0.3478   0.5294   0.5294
N373     N     0.235   0.3649   0.5455
N374     N     0.2045   0.3649   0.515
O375     O     0.2206   0.4022   0.5294
N376     N     0.015   0.3649   0.7045
N377     N     0.0455   0.3649   0.735
O378     O     0.0294   0.4022   0.7206
N379     N     0.015   0.7045   0.3649
N380     N     0.0455   0.735   0.3649
O381     O     0.0294   0.7206   0.4022
N382     N     0.515   0.3649   0.2045
N383     N     0.5455   0.3649   0.235
O384     O     0.5294   0.4022   0.2206
N385     N     0.015   0.3851   0.0455
N386     N     0.0455   0.3851   0.015
O387     O     0.0294   0.3478   0.0294
N388     N     0.3649   0.0455   0.735
N389     N     0.3649   0.015   0.7045
O390     O     0.4022   0.0294   0.7206
N391     N     0.3649   0.2045   0.515
N392     N     0.3649   0.235   0.5455
O393     O     0.4022   0.2206   0.5294
N394     N     0.3851   0.0455   0.015
N395     N     0.3851   0.015   0.0455
O396     O     0.3478   0.0294   0.0294
N397     N     0.7045   0.015   0.3649
N398     N     0.735   0.0455   0.3649
O399     O     0.7206   0.0294   0.4022
N400     N     0.0455   0.015   0.3851
N401     N     0.015   0.0455   0.3851
O402     O     0.0294   0.0294   0.3478
N403     N     0.1351   0.485   0.2955
N404     N     0.1351   0.4545   0.265
O405     O     0.0978   0.4706   0.2794
N406     N     0.1351   0.265   0.4545
N407     N     0.1351   0.2955   0.485
O408     O     0.0978   0.2794   0.4706
N409     N     0.1351   0.985   0.7955
N410     N     0.1351   0.9545   0.765
O411     O     0.0978   0.9706   0.7794
N412     N     0.1351   0.765   0.9545
N413     N     0.1351   0.7955   0.985
O414     O     0.0978   0.7794   0.9706
N415     N     0.485   0.2955   0.1351
N416     N     0.4545   0.265   0.1351
O417     O     0.4706   0.2794   0.0978
N418     N     0.9545   0.1351   0.765
N419     N     0.985   0.1351   0.7955
O420     O     0.9706   0.0978   0.7794
N421     N     0.765   0.9545   0.1351
N422     N     0.7955   0.985   0.1351
O423     O     0.7794   0.9706   0.0978
N424     N     0.515   0.8851   0.0455
N425     N     0.5455   0.8851   0.015
O426     O     0.5294   0.8478   0.0294
N427     N     0.8649   0.515   0.7045
N428     N     0.8649   0.5455   0.735
O429     O     0.9022   0.5294   0.7206
N430     N     0.8649   0.735   0.5455
N431     N     0.8649   0.7045   0.515
O432     O     0.9022   0.7206   0.5294
N433     N     0.485   0.4545   0.6149
N434     N     0.4545   0.485   0.6149
O435     O     0.4706   0.4706   0.6522
N436     N     0.8851   0.5455   0.015
N437     N     0.8851   0.515   0.0455
O438     O     0.8478   0.5294   0.0294
N439     N     0.2955   0.1149   0.765
N440     N     0.265   0.1149   0.7955
O441     O     0.2794   0.1522   0.7794
N442     N     0.4545   0.765   0.6351
N443     N     0.485   0.7955   0.6351
O444     O     0.4706   0.7794   0.5978
N445     N     0.515   0.7045   0.8649
N446     N     0.5455   0.735   0.8649
O447     O     0.5294   0.7206   0.9022
N448     N     0.7045   0.8649   0.515
N449     N     0.735   0.8649   0.5455
O450     O     0.7206   0.9022   0.5294
N451     N     0.735   0.8851   0.2045
N452     N     0.7045   0.8851   0.235
O453     O     0.7206   0.8478   0.2206
N454     N     0.4545   0.6149   0.485
N455     N     0.485   0.6149   0.4545
O456     O     0.4706   0.6522   0.4706
N457     N     0.8649   0.015   0.2045
N458     N     0.8649   0.0455   0.235
O459     O     0.9022   0.0294   0.2206
N460     N     0.2955   0.6351   0.985
N461     N     0.265   0.6351   0.9545
O462     O     0.2794   0.5978   0.9706
N463     N     0.2955   0.6149   0.265
N464     N     0.265   0.6149   0.2955
O465     O     0.2794   0.6522   0.2794
N466     N     0.8649   0.235   0.0455
N467     N     0.8649   0.2045   0.015
O468     O     0.9022   0.2206   0.0294
N469     N     0.8851   0.015   0.5455
N470     N     0.8851   0.0455   0.515
O471     O     0.8478   0.0294   0.5294
N472     N     0.515   0.0455   0.8851
N473     N     0.5455   0.015   0.8851
O474     O     0.5294   0.0294   0.8478
N475     N     0.8851   0.235   0.7045
N476     N     0.8851   0.2045   0.735
O477     O     0.8478   0.2206   0.7206
N478     N     0.6149   0.2955   0.265
N479     N     0.6149   0.265   0.2955
O480     O     0.6522   0.2794   0.2794
N481     N     0.015   0.8649   0.2045
N482     N     0.0455   0.8649   0.235
O483     O     0.0294   0.9022   0.2206
N484     N     0.265   0.2955   0.6149
N485     N     0.2955   0.265   0.6149
O486     O     0.2794   0.2794   0.6522
N487     N     0.6351   0.4545   0.765
N488     N     0.6351   0.485   0.7955
O489     O     0.5978   0.4706   0.7794
N490     N     0.6351   0.2955   0.985
N491     N     0.6351   0.265   0.9545
O492     O     0.5978   0.2794   0.9706
N493     N     0.515   0.8649   0.7045
N494     N     0.5455   0.8649   0.735
O495     O     0.5294   0.9022   0.7206
N496     N     0.0455   0.8851   0.515
N497     N     0.015   0.8851   0.5455
O498     O     0.0294   0.8478   0.5294
N499     N     0.735   0.5455   0.8649
N500     N     0.7045   0.515   0.8649
O501     O     0.7206   0.5294   0.9022
N502     N     0.7955   0.765   0.6149
N503     N     0.765   0.7955   0.6149
O504     O     0.7794   0.7794   0.6522
N505     N     0.765   0.4545   0.6351
N506     N     0.7955   0.485   0.6351
O507     O     0.7794   0.4706   0.5978
N508     N     0.0455   0.515   0.8851
N509     N     0.015   0.5455   0.8851
O510     O     0.0294   0.5294   0.8478
N511     N     0.8851   0.7045   0.235
N512     N     0.8851   0.735   0.2045
O513     O     0.8478   0.7206   0.2206
N514     N     0.7955   0.1149   0.265
N515     N     0.765   0.1149   0.2955
O516     O     0.7794   0.1522   0.2794
N517     N     0.485   0.6351   0.7955
N518     N     0.4545   0.6351   0.765
O519     O     0.4706   0.5978   0.7794
N520     N     0.6149   0.7955   0.765
N521     N     0.6149   0.765   0.7955
O522     O     0.6522   0.7794   0.7794
N523     N     0.6149   0.9545   0.985
N524     N     0.6149   0.985   0.9545
O525     O     0.6522   0.9706   0.9706
N526     N     0.265   0.9545   0.6351
N527     N     0.2955   0.985   0.6351
O528     O     0.2794   0.9706   0.5978
N529     N     0.235   0.7045   0.8851
N530     N     0.2045   0.735   0.8851
O531     O     0.2206   0.7206   0.8478
N532     N     0.235   0.0455   0.8649
N533     N     0.2045   0.015   0.8649
O534     O     0.2206   0.0294   0.9022
N535     N     0.265   0.7955   0.1149
N536     N     0.2955   0.765   0.1149
O537     O     0.2794   0.7794   0.1522
N538     N     0.6351   0.9545   0.265
N539     N     0.6351   0.985   0.2955
O540     O     0.5978   0.9706   0.2794
N541     N     0.235   0.8649   0.0455
N542     N     0.2045   0.8649   0.015
O543     O     0.2206   0.9022   0.0294
N544     N     0.6149   0.485   0.4545
N545     N     0.6149   0.4545   0.485
O546     O     0.6522   0.4706   0.4706
N547     N     0.2045   0.8851   0.735
N548     N     0.235   0.8851   0.7045
O549     O     0.2206   0.8478   0.7206
N550     N     0.6351   0.7955   0.485
N551     N     0.6351   0.765   0.4545
O552     O     0.5978   0.7794   0.4706
N553     N     0.9545   0.6149   0.985
N554     N     0.985   0.6149   0.9545
O555     O     0.9706   0.6522   0.9706
N556     N     0.765   0.6351   0.4545
N557     N     0.7955   0.6351   0.485
O558     O     0.7794   0.5978   0.4706
N559     N     0.765   0.6149   0.7955
N560     N     0.7955   0.6149   0.765
O561     O     0.7794   0.6522   0.7794
N562     N     0.985   0.6351   0.2955
N563     N     0.9545   0.6351   0.265
O564     O     0.9706   0.5978   0.2794
N565     N     0.985   0.9545   0.6149
N566     N     0.9545   0.985   0.6149
O567     O     0.9706   0.9706   0.6522
N568     N     0.0455   0.235   0.8649
N569     N     0.015   0.2045   0.8649
O570     O     0.0294   0.2206   0.9022
N571     N     0.735   0.2045   0.8851
N572     N     0.7045   0.235   0.8851
O573     O     0.7206   0.2206   0.8478
N574     N     0.985   0.2955   0.6351
N575     N     0.9545   0.265   0.6351
O576     O     0.9706   0.2794   0.5978
C577     C     0.2634   0.9866   0.5171
C578     C     0.2329   0.9866   0.4866
C579     C     0.2634   0.0171   0.4866
C580     C     0.2366   0.2671   0.2366
C581     C     0.2671   0.2366   0.2366
C582     C     0.2366   0.2366   0.2671
C583     C     0.5134   0.2671   0.5134
C584     C     0.5134   0.2366   0.4829
C585     C     0.4829   0.2366   0.5134
C586     C     0.5134   0.5134   0.2671
C587     C     0.4829   0.5134   0.2366
C588     C     0.5134   0.4829   0.2366
C589     C     0.7329   0.9866   0.9866
C590     C     0.7634   0.9866   0.0171
C591     C     0.7634   0.0171   0.9866
C592     C     0.5171   0.9866   0.2634
C593     C     0.4866   0.9866   0.2329
C594     C     0.4866   0.0171   0.2634
C595     C     0.9866   0.7634   0.0171
C596     C     0.9866   0.7329   0.9866
C597     C     0.0171   0.7634   0.9866
C598     C     0.9866   0.5171   0.2634
C599     C     0.9866   0.4866   0.2329
C600     C     0.0171   0.4866   0.2634
C601     C     0.0171   0.9866   0.7634
C602     C     0.9866   0.9866   0.7329
C603     C     0.9866   0.0171   0.7634
C604     C     0.9866   0.2329   0.4866
C605     C     0.0171   0.2634   0.4866
C606     C     0.9866   0.2634   0.5171
C607     C     0.2634   0.4866   0.0171
C608     C     0.2329   0.4866   0.9866
C609     C     0.2634   0.5171   0.9866
C610     C     0.5171   0.2634   0.9866
C611     C     0.4866   0.2329   0.9866
C612     C     0.4866   0.2634   0.0171
C613     C     0.2671   0.0134   0.0134
C614     C     0.2366   0.9829   0.0134
C615     C     0.2366   0.0134   0.9829
C616     C     0.0134   0.0134   0.2671
C617     C     0.9829   0.0134   0.2366
C618     C     0.0134   0.9829   0.2366
C619     C     0.9829   0.2366   0.0134
C620     C     0.0134   0.2671   0.0134
C621     C     0.0134   0.2366   0.9829
C622     C     0.5171   0.4866   0.7634
C623     C     0.4866   0.5171   0.7634
C624     C     0.4866   0.4866   0.7329
C625     C     0.7329   0.4866   0.4866
C626     C     0.7634   0.4866   0.5171
C627     C     0.7634   0.5171   0.4866
C628     C     0.4866   0.7329   0.4866
C629     C     0.4866   0.7634   0.5171
C630     C     0.5171   0.7634   0.4866
C631     C     0.2671   0.5134   0.5134
C632     C     0.2366   0.5134   0.4829
C633     C     0.2366   0.4829   0.5134
C634     C     0.7366   0.2671   0.7366
C635     C     0.7671   0.2366   0.7366
C636     C     0.7366   0.2366   0.7671
C637     C     0.0134   0.5134   0.7671
C638     C     0.9829   0.5134   0.7366
C639     C     0.0134   0.4829   0.7366
C640     C     0.9829   0.7366   0.5134
C641     C     0.0134   0.7366   0.4829
C642     C     0.0134   0.7671   0.5134
C643     C     0.5134   0.7671   0.0134
C644     C     0.5134   0.7366   0.9829
C645     C     0.4829   0.7366   0.0134
C646     C     0.7366   0.0134   0.4829
C647     C     0.7366   0.9829   0.5134
C648     C     0.7671   0.0134   0.5134
C649     C     0.5134   0.9829   0.7366
C650     C     0.4829   0.0134   0.7366
C651     C     0.5134   0.0134   0.7671
C652     C     0.7366   0.5134   0.9829
C653     C     0.7366   0.4829   0.0134
C654     C     0.7671   0.5134   0.0134
C655     C     0.7366   0.7366   0.2671
C656     C     0.7671   0.7366   0.2366
C657     C     0.7366   0.7671   0.2366
C658     C     0.2671   0.7366   0.7366
C659     C     0.2366   0.7366   0.7671
C660     C     0.2366   0.7671   0.7366
C661     C     0.2329   0.2634   0.7634
C662     C     0.2634   0.2329   0.7634
C663     C     0.2634   0.2634   0.7329
C664     C     0.7634   0.7329   0.7634
C665     C     0.7634   0.7634   0.7329
C666     C     0.7329   0.7634   0.7634
C667     C     0.7329   0.2634   0.2634
C668     C     0.7634   0.2634   0.2329
C669     C     0.7634   0.2329   0.2634
C670     C     0.2634   0.7329   0.2634
C671     C     0.2329   0.7634   0.2634
C672     C     0.2634   0.7634   0.2329
S673     S     0.2633   0.1779   0.4039
Ce674     Ce     0.25   0.1395   0.3895
S675     S     0.2367   0.1539   0.4279
Ce676     Ce     0.25   0.6105   0.3605
S677     S     0.2367   0.5961   0.3221
S678     S     0.2633   0.5721   0.3461
Ce679     Ce     0.6105   0.8895   0.0
S680     S     0.5961   0.9279   0.0133
S681     S     0.5721   0.9039   0.9867
Ce682     Ce     0.6105   0.0   0.8895
S683     S     0.5961   0.0133   0.9279
S684     S     0.5721   0.9867   0.9039
Ce685     Ce     0.0   0.8895   0.6105
S686     S     0.0133   0.9279   0.5961
S687     S     0.9867   0.9039   0.5721
Ce688     Ce     0.0   0.6105   0.8895
S689     S     0.0133   0.5961   0.9279
S690     S     0.9867   0.5721   0.9039
Ce691     Ce     0.8895   0.0   0.6105
S692     S     0.9279   0.0133   0.5961
S693     S     0.9039   0.9867   0.5721
Ce694     Ce     0.8895   0.6105   0.0
S695     S     0.9279   0.5961   0.0133
S696     S     0.9039   0.5721   0.9867
Ce697     Ce     0.25   0.1105   0.8605
S698     S     0.2367   0.0961   0.8221
S699     S     0.2633   0.0721   0.8461
Ce700     Ce     0.25   0.6395   0.8895
S701     S     0.2633   0.6779   0.9039
S702     S     0.2367   0.6539   0.9279
S703     S     0.5961   0.3221   0.2367
Ce704     Ce     0.6105   0.3605   0.25
S705     S     0.5721   0.3461   0.2633
Ce706     Ce     0.3895   0.1105   0.0
S707     S     0.4279   0.0961   0.0133
S708     S     0.4039   0.0721   0.9867
Ce709     Ce     0.0   0.3895   0.1105
S710     S     0.0133   0.4279   0.0961
S711     S     0.9867   0.4039   0.0721
Ce712     Ce     0.1105   0.0   0.3895
S713     S     0.0961   0.0133   0.4279
S714     S     0.0721   0.9867   0.4039
Ce715     Ce     0.1105   0.3895   0.0
S716     S     0.0961   0.4279   0.0133
S717     S     0.0721   0.4039   0.9867
Ce718     Ce     0.3895   0.0   0.1105
S719     S     0.4279   0.0133   0.0961
S720     S     0.4039   0.9867   0.0721
Ce721     Ce     0.0   0.1105   0.3895
S722     S     0.0133   0.0961   0.4279
S723     S     0.9867   0.0721   0.4039
Ce724     Ce     0.6105   0.25   0.3605
S725     S     0.5961   0.2367   0.3221
S726     S     0.5721   0.2633   0.3461
Ce727     Ce     0.3605   0.6105   0.25
S728     S     0.3221   0.5961   0.2367
S729     S     0.3461   0.5721   0.2633
S730     S     0.3221   0.2367   0.5961
Ce731     Ce     0.3605   0.25   0.6105
S732     S     0.3461   0.2633   0.5721
Ce733     Ce     0.25   0.3605   0.6105
S734     S     0.2367   0.3221   0.5961
S735     S     0.2633   0.3461   0.5721
Ce736     Ce     0.1395   0.3895   0.25
S737     S     0.1539   0.4279   0.2367
S738     S     0.1779   0.4039   0.2633
S739     S     0.4279   0.2367   0.1539
Ce740     Ce     0.3895   0.25   0.1395
S741     S     0.4039   0.2633   0.1779
Ce742     Ce     0.8605   0.1105   0.25
S743     S     0.8221   0.0961   0.2367
S744     S     0.8461   0.0721   0.2633
Ce745     Ce     0.6395   0.0   0.3605
S746     S     0.6779   0.9867   0.3461
S747     S     0.6539   0.0133   0.3221
Ce748     Ce     0.0   0.6395   0.3605
S749     S     0.0133   0.6539   0.3221
S750     S     0.9867   0.6779   0.3461
Ce751     Ce     0.1105   0.8605   0.25
S752     S     0.0961   0.8221   0.2367
S753     S     0.0721   0.8461   0.2633
S754     S     0.8221   0.1539   0.0133
Ce755     Ce     0.8605   0.1395   0.0
S756     S     0.8461   0.1779   0.9867
Ce757     Ce     0.1395   0.0   0.8605
S758     S     0.1539   0.0133   0.8221
S759     S     0.1779   0.9867   0.8461
Ce760     Ce     0.8605   0.0   0.1395
S761     S     0.8221   0.0133   0.1539
S762     S     0.8461   0.9867   0.1779
Ce763     Ce     0.0   0.8605   0.1395
S764     S     0.0133   0.8221   0.1539
S765     S     0.9867   0.8461   0.1779
S766     S     0.1539   0.8221   0.0133
Ce767     Ce     0.1395   0.8605   0.0
S768     S     0.1779   0.8461   0.9867
S769     S     0.0133   0.1539   0.8221
Ce770     Ce     0.0   0.1395   0.8605
S771     S     0.9867   0.1779   0.8461
Ce772     Ce     0.25   0.8605   0.1105
S773     S     0.2367   0.8221   0.0961
S774     S     0.2633   0.8461   0.0721
H775     H     0.1098   0.1402   0.364
H776     H     0.1402   0.1098   0.364
He777     He     0.125   0.125   0.4014
H778     H     0.1098   0.1098   0.886
H779     H     0.1402   0.1402   0.886
He780     He     0.125   0.125   0.8486
H781     H     0.886   0.1402   0.1402
H782     H     0.886   0.1098   0.1098
He783     He     0.8486   0.125   0.125
H784     H     0.1402   0.364   0.1098
H785     H     0.1098   0.364   0.1402
He786     He     0.125   0.4014   0.125
H787     H     0.364   0.1098   0.1402
H788     H     0.364   0.1402   0.1098
He789     He     0.4014   0.125   0.125
H790     H     0.1098   0.886   0.1098
H791     H     0.1402   0.886   0.1402
He792     He     0.125   0.8486   0.125
F793     F     0.1408   0.0341   0.8869
Ne794     Ne     0.1569   0.0504   0.9234
Na795     Na     0.1318   0.0748   0.8981
F796     F     0.1408   0.8869   0.0341
Ne797     Ne     0.1568   0.9234   0.0504
Na798     Na     0.1318   0.8981   0.0748
F799     F     0.2159   0.8869   0.1092
Ne800     Ne     0.1996   0.9234   0.0932
Na801     Na     0.1753   0.8981   0.1182
F802     F     0.3631   0.1092   0.0341
Ne803     Ne     0.3266   0.0932   0.0504
Na804     Na     0.3519   0.1182   0.0748
F805     F     0.3631   0.0341   0.1092
Ne806     Ne     0.3266   0.0504   0.0932
Na807     Na     0.3519   0.0748   0.1182
Be808     Be     0.2215   0.0774   0.998
Er809     Er     0.2117   0.0688   0.9569
Er810     Er     0.1812   0.0383   0.9569
Ti811     Ti     0.2215   0.0285   0.9454
Be812     Be     0.1726   0.0285   0.998
B813     B     0.163   0.0388   0.0388
Be814     Be     0.2215   0.998   0.0774
Er815     Er     0.2117   0.9569   0.0688
Er816     Er     0.1812   0.9569   0.0383
Ti817     Ti     0.2215   0.9454   0.0285
Be818     Be     0.1726   0.998   0.0285
B819     B     0.2112   0.0388   0.087
B820     B     0.2112   0.087   0.0388
Be821     Be     0.252   0.0285   0.0774
Er822     Er     0.2931   0.0688   0.0383
Er823     Er     0.2931   0.0383   0.0688
Ti824     Ti     0.3046   0.0285   0.0285
Be825     Be     0.252   0.0774   0.0285
F826     F     0.2159   0.1092   0.8869
Ne827     Ne     0.1996   0.0932   0.9234
Na828     Na     0.1752   0.1182   0.8981
F829     F     0.1408   0.2159   0.3631
Ne830     Ne     0.1569   0.1996   0.3266
Na831     Na     0.1318   0.1752   0.3519
F832     F     0.2159   0.1408   0.3631
Ne833     Ne     0.1996   0.1568   0.3266
Na834     Na     0.1752   0.1318   0.3519
F835     F     0.1408   0.3631   0.2159
Ne836     Ne     0.1568   0.3266   0.1996
Na837     Na     0.1318   0.3519   0.1752
F838     F     0.2159   0.3631   0.1408
Ne839     Ne     0.1996   0.3266   0.1569
Na840     Na     0.1753   0.3519   0.1318
F841     F     0.3631   0.2159   0.1408
Ne842     Ne     0.3266   0.1996   0.1568
Na843     Na     0.3519   0.1752   0.1318
B844     B     0.163   0.2112   0.2112
Be845     Be     0.1726   0.2215   0.252
Er846     Er     0.2117   0.1812   0.2931
Er847     Er     0.1812   0.2117   0.2931
Ti848     Ti     0.2215   0.2215   0.3046
Be849     Be     0.2215   0.1726   0.252
B850     B     0.2112   0.163   0.2112
Be851     Be     0.252   0.1726   0.2215
Er852     Er     0.2931   0.1812   0.2117
Er853     Er     0.2931   0.2117   0.1812
Ti854     Ti     0.3046   0.2215   0.2215
Be855     Be     0.252   0.2215   0.1726
B856     B     0.2112   0.2112   0.163
Be857     Be     0.2215   0.252   0.1726
Er858     Er     0.1812   0.2931   0.2117
Er859     Er     0.2117   0.2931   0.1812
Ti860     Ti     0.2215   0.3046   0.2215
Be861     Be     0.1726   0.252   0.2215
F862     F     0.3631   0.1408   0.2159
Ne863     Ne     0.3266   0.1568   0.1996
Na864     Na     0.3519   0.1318   0.1753
F865     F     0.8869   0.1092   0.2159
Ne866     Ne     0.9234   0.0932   0.1996
Na867     Na     0.8981   0.1182   0.1752
F868     F     0.0341   0.8869   0.1408
Ne869     Ne     0.0504   0.9234   0.1568
Na870     Na     0.0748   0.8981   0.1318
F871     F     0.1092   0.0341   0.3631
Ne872     Ne     0.0932   0.0504   0.3266
Na873     Na     0.1182   0.0748   0.3519
F874     F     0.0341   0.1092   0.3631
Ne875     Ne     0.0504   0.0932   0.3266
Na876     Na     0.0748   0.1182   0.3519
F877     F     0.8869   0.0341   0.1408
Ne878     Ne     0.9234   0.0504   0.1568
Na879     Na     0.8981   0.0748   0.1318
B880     B     0.0388   0.0388   0.163
Be881     Be     0.0774   0.998   0.2215
Er882     Er     0.0688   0.9569   0.2117
Er883     Er     0.0383   0.9569   0.1812
Ti884     Ti     0.0285   0.9454   0.2215
Be885     Be     0.0285   0.998   0.1726
Be886     Be     0.998   0.0285   0.1726
Er887     Er     0.9569   0.0688   0.2117
Er888     Er     0.9569   0.0383   0.1812
Ti889     Ti     0.9454   0.0285   0.2215
Be890     Be     0.998   0.0774   0.2215
B891     B     0.0388   0.087   0.2112
B892     B     0.087   0.0388   0.2112
Be893     Be     0.0285   0.0774   0.252
Er894     Er     0.0688   0.0383   0.2931
Er895     Er     0.0383   0.0688   0.2931
Ti896     Ti     0.0285   0.0285   0.3046
Be897     Be     0.0774   0.0285   0.252
F898     F     0.1092   0.8869   0.2159
Ne899     Ne     0.0932   0.9234   0.1996
Na900     Na     0.1182   0.8981   0.1752
F901     F     0.8869   0.1408   0.0341
Ne902     Ne     0.9234   0.1569   0.0504
Na903     Na     0.8981   0.1318   0.0748
F904     F     0.1092   0.2159   0.8869
Ne905     Ne     0.0932   0.1996   0.9234
Na906     Na     0.1182   0.1752   0.8981
F907     F     0.0341   0.1408   0.8869
Ne908     Ne     0.0504   0.1568   0.9234
Na909     Na     0.0748   0.1318   0.8981
F910     F     0.0341   0.3631   0.1092
Ne911     Ne     0.0504   0.3266   0.0932
Na912     Na     0.0748   0.3519   0.1182
F913     F     0.1092   0.3631   0.0341
Ne914     Ne     0.0932   0.3266   0.0504
Na915     Na     0.1182   0.3519   0.0748
B916     B     0.0388   0.163   0.0388
Be917     Be     0.998   0.2215   0.0774
Er918     Er     0.9569   0.1812   0.0383
Er919     Er     0.9569   0.2117   0.0688
Ti920     Ti     0.9454   0.2215   0.0285
Be921     Be     0.998   0.1726   0.0285
Be922     Be     0.0774   0.2215   0.998
Er923     Er     0.0688   0.2117   0.9569
Er924     Er     0.0383   0.1812   0.9569
Ti925     Ti     0.0285   0.2215   0.9454
Be926     Be     0.0285   0.1726   0.998
B927     B     0.0388   0.2112   0.087
B928     B     0.087   0.2112   0.0388
Be929     Be     0.0285   0.252   0.0774
Er930     Er     0.0688   0.2931   0.0383
Er931     Er     0.0383   0.2931   0.0688
Ti932     Ti     0.0285   0.3046   0.0285
Be933     Be     0.0774   0.252   0.0285
F934     F     0.8869   0.2159   0.1092
Ne935     Ne     0.9234   0.1996   0.0932
Na936     Na     0.8981   0.1752   0.1182
Li937     Li     0.1147   0.1658   0.1658
Li938     Li     0.0842   0.1658   0.1353
Li939     Li     0.0842   0.1353   0.1658
V940     V     0.0986   0.1819   0.0681
V941     V     0.0682   0.1819   0.0986
V942     V     0.0682   0.1514   0.0682
V943     V     0.1818   0.0682   0.0986
V944     V     0.1819   0.0986   0.0682
V945     V     0.1514   0.0682   0.0682
V946     V     0.0682   0.0986   0.1819
V947     V     0.0986   0.0682   0.1819
V948     V     0.0682   0.0682   0.1514
Li949     Li     0.0842   0.0842   0.1147
Li950     Li     0.0842   0.1147   0.0842
Li951     Li     0.1147   0.0842   0.0842
Li952     Li     0.1353   0.1658   0.0842
Li953     Li     0.1658   0.1658   0.1147
Li954     Li     0.1658   0.1353   0.0842
V955     V     0.1818   0.1514   0.1818
V956     V     0.1818   0.1819   0.1514
V957     V     0.1514   0.1819   0.1819
Li958     Li     0.1658   0.1147   0.1658
Li959     Li     0.1353   0.0842   0.1658
Li960     Li     0.1658   0.0842   0.1353
Ce961     Ce     0.3605   0.6395   0.0
S962     S     0.3461   0.6779   0.9867
S963     S     0.3221   0.6539   0.0133
Ce964     Ce     0.3605   0.0   0.6395
S965     S     0.3221   0.0133   0.6539
S966     S     0.3461   0.9867   0.6779
Ce967     Ce     0.0   0.3605   0.6395
S968     S     0.9867   0.3461   0.6779
S969     S     0.0133   0.3221   0.6539
Ce970     Ce     0.6395   0.3605   0.0
S971     S     0.6539   0.3221   0.0133
S972     S     0.6779   0.3461   0.9867
Ce973     Ce     0.6105   0.5   0.3895
S974     S     0.5961   0.5133   0.4279
S975     S     0.5721   0.4867   0.4039
Ce976     Ce     0.1105   0.8895   0.5
S977     S     0.0721   0.9039   0.4867
S978     S     0.0961   0.9279   0.5133
Ce979     Ce     0.5   0.6105   0.3895
S980     S     0.5133   0.5961   0.4279
S981     S     0.4867   0.5721   0.4039
Ce982     Ce     0.5   0.3895   0.6105
S983     S     0.5133   0.4279   0.5961
S984     S     0.4867   0.4039   0.5721
Ce985     Ce     0.6105   0.3895   0.5
S986     S     0.5961   0.4279   0.5133
S987     S     0.5721   0.4039   0.4867
Ce988     Ce     0.3895   0.5   0.6105
S989     S     0.4279   0.5133   0.5961
S990     S     0.4039   0.4867   0.5721
Ce991     Ce     0.8605   0.25   0.1105
S992     S     0.8221   0.2367   0.0961
S993     S     0.8461   0.2633   0.0721
Ce994     Ce     0.1105   0.5   0.8895
S995     S     0.0721   0.4867   0.9039
S996     S     0.0961   0.5133   0.9279
Ce997     Ce     0.5   0.1105   0.8895
S998     S     0.4867   0.0721   0.9039
S999     S     0.5133   0.0961   0.9279
Ce1000     Ce     0.5   0.8895   0.1105
S1001     S     0.4867   0.9039   0.0721
S1002     S     0.5133   0.9279   0.0961
Ce1003     Ce     0.5   0.1395   0.3605
S1004     S     0.5133   0.1539   0.3221
S1005     S     0.4867   0.1779   0.3461
Ce1006     Ce     0.8895   0.1105   0.5
S1007     S     0.9039   0.0721   0.4867
S1008     S     0.9279   0.0961   0.5133
Ce1009     Ce     0.1395   0.3605   0.5
S1010     S     0.1539   0.3221   0.5133
S1011     S     0.1779   0.3461   0.4867
Ce1012     Ce     0.3605   0.5   0.1395
S1013     S     0.3221   0.5133   0.1539
S1014     S     0.3461   0.4867   0.1779
Ce1015     Ce     0.8895   0.5   0.1105
S1016     S     0.9039   0.4867   0.0721
S1017     S     0.9279   0.5133   0.0961
Ce1018     Ce     0.3895   0.6105   0.5
S1019     S     0.4279   0.5961   0.5133
S1020     S     0.4039   0.5721   0.4867
Ce1021     Ce     0.1105   0.25   0.8605
S1022     S     0.0961   0.2367   0.8221
S1023     S     0.0721   0.2633   0.8461
Ce1024     Ce     0.1395   0.5   0.3605
S1025     S     0.1779   0.4867   0.3461
S1026     S     0.1539   0.5133   0.3221
Ce1027     Ce     0.1395   0.25   0.3895
S1028     S     0.1539   0.2367   0.4279
S1029     S     0.1779   0.2633   0.4039
Ce1030     Ce     0.3895   0.1395   0.25
S1031     S     0.4279   0.1539   0.2367
S1032     S     0.4039   0.1779   0.2633
Ce1033     Ce     0.5   0.3605   0.1395
S1034     S     0.4867   0.3461   0.1779
S1035     S     0.5133   0.3221   0.1539
Ce1036     Ce     0.3605   0.1395   0.5
S1037     S     0.3461   0.1779   0.4867
S1038     S     0.3221   0.1539   0.5133
Ce1039     Ce     0.25   0.3895   0.1395
S1040     S     0.2367   0.4279   0.1539
S1041     S     0.2633   0.4039   0.1779
Ce1042     Ce     0.75   0.3605   0.1105
S1043     S     0.7367   0.3221   0.0961
S1044     S     0.7633   0.3461   0.0721
Ce1045     Ce     0.3605   0.1105   0.75
S1046     S     0.3221   0.0961   0.7367
S1047     S     0.3461   0.0721   0.7633
Ce1048     Ce     0.5   0.6395   0.8605
S1049     S     0.5133   0.6539   0.8221
S1050     S     0.4867   0.6779   0.8461
Ce1051     Ce     0.8605   0.5   0.6395
S1052     S     0.8461   0.4867   0.6779
S1053     S     0.8221   0.5133   0.6539
Ce1054     Ce     0.6395   0.8605   0.5
S1055     S     0.6539   0.8221   0.5133
S1056     S     0.6779   0.8461   0.4867
S1057     S     0.9039   0.6779   0.2633
Ce1058     Ce     0.8895   0.6395   0.25
S1059     S     0.9279   0.6539   0.2367
Ce1060     Ce     0.8605   0.6395   0.5
S1061     S     0.8221   0.6539   0.5133
S1062     S     0.8461   0.6779   0.4867
Ce1063     Ce     0.8895   0.25   0.6395
S1064     S     0.9039   0.2633   0.6779
S1065     S     0.9279   0.2367   0.6539
S1066     S     0.7633   0.4039   0.6779
Ce1067     Ce     0.75   0.3895   0.6395
S1068     S     0.7367   0.4279   0.6539
Ce1069     Ce     0.75   0.6395   0.3895
S1070     S     0.7633   0.6779   0.4039
S1071     S     0.7367   0.6539   0.4279
H1072     H     0.8902   0.3598   0.136
H1073     H     0.8598   0.3902   0.136
He1074     He     0.875   0.375   0.0986
H1075     H     0.114   0.3598   0.3598
H1076     H     0.114   0.3902   0.3902
He1077     He     0.1514   0.375   0.375
H1078     H     0.636   0.3598   0.3902
H1079     H     0.636   0.3902   0.3598
He1080     He     0.5986   0.375   0.375
H1081     H     0.8598   0.3598   0.614
H1082     H     0.8902   0.3902   0.614
He1083     He     0.875   0.375   0.6514
H1084     H     0.8598   0.614   0.3598
H1085     H     0.8902   0.614   0.3902
He1086     He     0.875   0.6514   0.375
H1087     H     0.8598   0.136   0.3902
H1088     H     0.8902   0.136   0.3598
He1089     He     0.875   0.0987   0.375
F1090     F     0.1131   0.3908   0.2841
Ne1091     Ne     0.0766   0.4068   0.3004
Na1092     Na     0.1019   0.3818   0.3248
F1093     F     0.8908   0.6131   0.2841
Ne1094     Ne     0.9068   0.5766   0.3004
Na1095     Na     0.8818   0.6019   0.3248
F1096     F     0.1131   0.4659   0.3592
Ne1097     Ne     0.0766   0.4496   0.3431
Na1098     Na     0.1019   0.4252   0.3682
F1099     F     0.8908   0.4659   0.1369
Ne1100     Ne     0.9068   0.4496   0.1734
Na1101     Na     0.8818   0.4252   0.1481
F1102     F     0.9659   0.3908   0.1369
Ne1103     Ne     0.9496   0.4068   0.1734
Na1104     Na     0.9252   0.3818   0.1481
B1105     B     0.9612   0.4612   0.337
Be1106     Be     0.002   0.4715   0.3274
Er1107     Er     0.0431   0.4312   0.2883
Er1108     Er     0.0431   0.4617   0.3188
Ti1109     Ti     0.0546   0.4715   0.2785
Be1110     Be     0.002   0.4226   0.2785
B1111     B     0.9612   0.413   0.2888
Be1112     Be     0.9715   0.502   0.3274
Er1113     Er     0.9617   0.5431   0.3188
Er1114     Er     0.9312   0.5431   0.2883
Ti1115     Ti     0.9715   0.5546   0.2785
Be1116     Be     0.9226   0.502   0.2785
B1117     B     0.913   0.4612   0.2888
Be1118     Be     0.9715   0.4226   0.248
Er1119     Er     0.9617   0.4312   0.2069
Er1120     Er     0.9312   0.4617   0.2069
Ti1121     Ti     0.9715   0.4715   0.1954
Be1122     Be     0.9226   0.4715   0.248
F1123     F     0.9659   0.6131   0.3592
Ne1124     Ne     0.9496   0.5766   0.3432
Na1125     Na     0.9252   0.6019   0.3682
F1126     F     0.6369   0.4659   0.3908
Ne1127     Ne     0.6734   0.4496   0.4068
Na1128     Na     0.6481   0.4252   0.3818
F1129     F     0.8592   0.4659   0.6131
Ne1130     Ne     0.8432   0.4496   0.5766
Na1131     Na     0.8682   0.4252   0.6019
F1132     F     0.6369   0.3908   0.4659
Ne1133     Ne     0.6734   0.4068   0.4496
Na1134     Na     0.6481   0.3818   0.4252
F1135     F     0.7841   0.3908   0.6131
Ne1136     Ne     0.8004   0.4068   0.5766
Na1137     Na     0.8248   0.3818   0.6019
F1138     F     0.8592   0.6131   0.4659
Ne1139     Ne     0.8432   0.5766   0.4496
Na1140     Na     0.8682   0.6019   0.4252
B1141     B     0.7888   0.413   0.4612
B1142     B     0.7888   0.4612   0.413
Be1143     Be     0.748   0.4226   0.4715
Er1144     Er     0.7069   0.4617   0.4312
Er1145     Er     0.7069   0.4312   0.4617
Ti1146     Ti     0.6954   0.4715   0.4715
Be1147     Be     0.748   0.4715   0.4226
Be1148     Be     0.7785   0.502   0.4226
Er1149     Er     0.7883   0.5431   0.4312
Er1150     Er     0.8188   0.5431   0.4617
Ti1151     Ti     0.7785   0.5546   0.4715
Be1152     Be     0.8274   0.502   0.4715
B1153     B     0.837   0.4612   0.4612
Be1154     Be     0.7785   0.4226   0.502
Er1155     Er     0.7883   0.4312   0.5431
Er1156     Er     0.8188   0.4617   0.5431
Ti1157     Ti     0.7785   0.4715   0.5546
Be1158     Be     0.8274   0.4715   0.502
F1159     F     0.7841   0.6131   0.3908
Ne1160     Ne     0.8004   0.5766   0.4068
Na1161     Na     0.8248   0.6019   0.3818
F1162     F     0.6369   0.2841   0.3592
Ne1163     Ne     0.6734   0.3004   0.3432
Na1164     Na     0.6481   0.3248   0.3682
F1165     F     0.8592   0.2841   0.1369
Ne1166     Ne     0.8432   0.3004   0.1734
Na1167     Na     0.8682   0.3248   0.1481
F1168     F     0.7841   0.3592   0.1369
Ne1169     Ne     0.8004   0.3432   0.1734
Na1170     Na     0.8248   0.3682   0.1481
F1171     F     0.8592   0.1369   0.2841
Ne1172     Ne     0.8432   0.1734   0.3004
Na1173     Na     0.8682   0.1481   0.3248
F1174     F     0.7841   0.1369   0.3592
Ne1175     Ne     0.8004   0.1734   0.3432
Na1176     Na     0.8248   0.1481   0.3682
B1177     B     0.7888   0.2888   0.337
Be1178     Be     0.748   0.3274   0.2785
Er1179     Er     0.7069   0.3188   0.2883
Er1180     Er     0.7069   0.2883   0.3188
Ti1181     Ti     0.6954   0.2785   0.2785
Be1182     Be     0.748   0.2785   0.3274
Be1183     Be     0.8274   0.248   0.2785
Er1184     Er     0.7883   0.2069   0.3188
Er1185     Er     0.8188   0.2069   0.2883
Ti1186     Ti     0.7785   0.1954   0.2785
Be1187     Be     0.7785   0.248   0.3274
B1188     B     0.7888   0.337   0.2888
B1189     B     0.837   0.2888   0.2888
Be1190     Be     0.7785   0.3274   0.248
Er1191     Er     0.7883   0.3188   0.2069
Er1192     Er     0.8188   0.2883   0.2069
Ti1193     Ti     0.7785   0.2785   0.1954
Be1194     Be     0.8274   0.2785   0.248
F1195     F     0.6369   0.3592   0.2841
Ne1196     Ne     0.6734   0.3432   0.3004
Na1197     Na     0.6481   0.3682   0.3248
F1198     F     0.1131   0.3592   0.4659
Ne1199     Ne     0.0766   0.3432   0.4496
Na1200     Na     0.1019   0.3682   0.4252
F1201     F     0.8908   0.1369   0.4659
Ne1202     Ne     0.9068   0.1734   0.4496
Na1203     Na     0.8818   0.1481   0.4252
F1204     F     0.1131   0.2841   0.3908
Ne1205     Ne     0.0766   0.3004   0.4069
Na1206     Na     0.1019   0.3248   0.3818
F1207     F     0.9659   0.1369   0.3908
Ne1208     Ne     0.9496   0.1734   0.4068
Na1209     Na     0.9252   0.1481   0.3818
F1210     F     0.8908   0.2841   0.6131
Ne1211     Ne     0.9068   0.3004   0.5766
Na1212     Na     0.8818   0.3248   0.6019
B1213     B     0.9612   0.337   0.4612
Be1214     Be     0.002   0.2785   0.4226
Er1215     Er     0.0431   0.2883   0.4312
Er1216     Er     0.0431   0.3188   0.4617
Ti1217     Ti     0.0546   0.2785   0.4715
Be1218     Be     0.002   0.3274   0.4715
B1219     B     0.9612   0.2888   0.413
Be1220     Be     0.9715   0.248   0.4226
Er1221     Er     0.9617   0.2069   0.4312
Er1222     Er     0.9312   0.2069   0.4617
Ti1223     Ti     0.9715   0.1954   0.4715
Be1224     Be     0.9226   0.248   0.4715
B1225     B     0.913   0.2888   0.4612
Be1226     Be     0.9715   0.3274   0.502
Er1227     Er     0.9617   0.3188   0.5431
Er1228     Er     0.9312   0.2883   0.5431
Ti1229     Ti     0.9715   0.2785   0.5546
Be1230     Be     0.9226   0.2785   0.502
F1231     F     0.9659   0.3592   0.6131
Ne1232     Ne     0.9496   0.3432   0.5766
Na1233     Na     0.9252   0.3682   0.6019
V1234     V     0.8182   0.4318   0.4014
V1235     V     0.8182   0.4014   0.4318
V1236     V     0.8486   0.4318   0.4318
V1237     V     0.8182   0.3182   0.3486
V1238     V     0.8486   0.3182   0.3182
V1239     V     0.8181   0.3486   0.3182
Li1240     Li     0.8342   0.3647   0.4158
Li1241     Li     0.8647   0.3342   0.4158
Li1242     Li     0.8342   0.3342   0.3853
Li1243     Li     0.9158   0.4158   0.3853
Li1244     Li     0.9158   0.3853   0.4158
Li1245     Li     0.8853   0.4158   0.4158
V1246     V     0.9318   0.4318   0.3486
V1247     V     0.9318   0.4014   0.3182
V1248     V     0.9014   0.4318   0.3182
Li1249     Li     0.8342   0.4158   0.3647
Li1250     Li     0.8342   0.3853   0.3342
Li1251     Li     0.8647   0.4158   0.3342
V1252     V     0.9318   0.3486   0.4318
V1253     V     0.9318   0.3182   0.4014
V1254     V     0.9014   0.3181   0.4318
Li1255     Li     0.9158   0.3342   0.3647
Li1256     Li     0.9158   0.3647   0.3342
Li1257     Li     0.8853   0.3342   0.3342
Ce1258     Ce     0.75   0.1105   0.3605
S1259     S     0.7367   0.0961   0.3221
S1260     S     0.7633   0.0721   0.3461
Ce1261     Ce     0.6105   0.8605   0.75
S1262     S     0.5961   0.8221   0.7367
S1263     S     0.5721   0.8461   0.7633
S1264     S     0.7367   0.8221   0.5961
Ce1265     Ce     0.75   0.8605   0.6105
S1266     S     0.7633   0.8461   0.5721
H1267     H     0.386   0.1402   0.6402
H1268     H     0.386   0.1098   0.6098
He1269     He     0.3486   0.125   0.625
H1270     H     0.864   0.1098   0.6402
H1271     H     0.864   0.1402   0.6098
He1272     He     0.9014   0.125   0.625
H1273     H     0.6402   0.886   0.6402
H1274     H     0.6098   0.886   0.6098
He1275     He     0.625   0.8486   0.625
H1276     H     0.6098   0.364   0.6402
H1277     H     0.6402   0.364   0.6098
He1278     He     0.625   0.4014   0.625
H1279     H     0.6402   0.1098   0.864
H1280     H     0.6098   0.1402   0.864
He1281     He     0.625   0.125   0.9014
H1282     H     0.6402   0.1402   0.386
H1283     H     0.6098   0.1098   0.386
He1284     He     0.625   0.125   0.3486
F1285     F     0.5341   0.3631   0.6092
Ne1286     Ne     0.5504   0.3266   0.5932
Na1287     Na     0.5748   0.3519   0.6182
F1288     F     0.6092   0.3631   0.5341
Ne1289     Ne     0.5932   0.3266   0.5504
Na1290     Na     0.6182   0.3519   0.5748
F1291     F     0.3869   0.2159   0.6092
Ne1292     Ne     0.4234   0.1996   0.5932
Na1293     Na     0.3981   0.1752   0.6182
F1294     F     0.5341   0.1408   0.3869
Ne1295     Ne     0.5504   0.1568   0.4234
Na1296     Na     0.5748   0.1318   0.3981
F1297     F     0.6092   0.2159   0.3869
Ne1298     Ne     0.5932   0.1996   0.4234
Na1299     Na     0.6182   0.1752   0.3981
B1300     B     0.5388   0.163   0.5388
Be1301     Be     0.498   0.1726   0.5285
Er1302     Er     0.4569   0.1812   0.5383
Er1303     Er     0.4569   0.2117   0.5688
Ti1304     Ti     0.4454   0.2215   0.5285
Be1305     Be     0.498   0.2215   0.5774
B1306     B     0.5388   0.2112   0.587
Be1307     Be     0.5774   0.2215   0.498
Er1308     Er     0.5383   0.1812   0.4569
Er1309     Er     0.5688   0.2117   0.4569
Ti1310     Ti     0.5285   0.2215   0.4454
Be1311     Be     0.5285   0.1726   0.498
B1312     B     0.587   0.2112   0.5388
Be1313     Be     0.5285   0.252   0.5774
Er1314     Er     0.5688   0.2931   0.5383
Er1315     Er     0.5383   0.2931   0.5688
Ti1316     Ti     0.5285   0.3046   0.5285
Be1317     Be     0.5774   0.252   0.5285
F1318     F     0.3869   0.1408   0.5341
Ne1319     Ne     0.4234   0.1569   0.5504
Na1320     Na     0.3981   0.1318   0.5748
F1321     F     0.7159   0.8869   0.6092
Ne1322     Ne     0.6996   0.9234   0.5932
Na1323     Na     0.6752   0.8981   0.6182
F1324     F     0.6408   0.8869   0.5341
Ne1325     Ne     0.6568   0.9234   0.5504
Na1326     Na     0.6318   0.8981   0.5748
F1327     F     0.7159   0.1092   0.3869
Ne1328     Ne     0.6996   0.0932   0.4234
Na1329     Na     0.6752   0.1182   0.3981
F1330     F     0.6408   0.0341   0.3869
Ne1331     Ne     0.6568   0.0504   0.4234
Na1332     Na     0.6318   0.0748   0.3981
F1333     F     0.8631   0.0341   0.6092
Ne1334     Ne     0.8266   0.0504   0.5932
Na1335     Na     0.8519   0.0748   0.6182
B1336     B     0.7112   0.087   0.5388
B1337     B     0.7112   0.0388   0.587
Be1338     Be     0.752   0.0774   0.5285
Er1339     Er     0.7931   0.0688   0.5383
Er1340     Er     0.7931   0.0383   0.5688
Ti1341     Ti     0.8046   0.0285   0.5285
Be1342     Be     0.752   0.0285   0.5774
Be1343     Be     0.6726   0.998   0.5285
Er1344     Er     0.6812   0.9569   0.5383
Er1345     Er     0.7117   0.9569   0.5688
Ti1346     Ti     0.7215   0.9454   0.5285
Be1347     Be     0.7215   0.998   0.5774
B1348     B     0.663   0.0388   0.5388
Be1349     Be     0.6726   0.0285   0.498
Er1350     Er     0.7117   0.0688   0.4569
Er1351     Er     0.6812   0.0383   0.4569
Ti1352     Ti     0.7215   0.0285   0.4454
Be1353     Be     0.7215   0.0774   0.498
F1354     F     0.8631   0.1092   0.5341
Ne1355     Ne     0.8266   0.0932   0.5504
Na1356     Na     0.8519   0.1182   0.5748
F1357     F     0.5341   0.8869   0.6408
Ne1358     Ne     0.5504   0.9234   0.6568
Na1359     Na     0.5748   0.8981   0.6318
F1360     F     0.3869   0.0341   0.6408
Ne1361     Ne     0.4234   0.0504   0.6568
Na1362     Na     0.3981   0.0748   0.6318
F1363     F     0.6092   0.0341   0.8631
Ne1364     Ne     0.5932   0.0504   0.8266
Na1365     Na     0.6182   0.0748   0.8519
F1366     F     0.5341   0.1092   0.8631
Ne1367     Ne     0.5504   0.0932   0.8266
Na1368     Na     0.5748   0.1182   0.8519
F1369     F     0.6092   0.8869   0.7159
Ne1370     Ne     0.5932   0.9234   0.6996
Na1371     Na     0.6182   0.8981   0.6752
B1372     B     0.587   0.0388   0.7112
B1373     B     0.5388   0.087   0.7112
Be1374     Be     0.5285   0.0774   0.752
Er1375     Er     0.5383   0.0688   0.7931
Er1376     Er     0.5688   0.0383   0.7931
Ti1377     Ti     0.5285   0.0285   0.8046
Be1378     Be     0.5774   0.0285   0.752
Be1379     Be     0.5774   0.998   0.7215
Er1380     Er     0.5383   0.9569   0.6812
Er1381     Er     0.5688   0.9569   0.7117
Ti1382     Ti     0.5285   0.9454   0.7215
Be1383     Be     0.5285   0.998   0.6726
B1384     B     0.5388   0.0388   0.663
Be1385     Be     0.498   0.0774   0.7215
Er1386     Er     0.4569   0.0688   0.7117
Er1387     Er     0.4569   0.0383   0.6812
Ti1388     Ti     0.4454   0.0285   0.7215
Be1389     Be     0.498   0.0285   0.6726
F1390     F     0.3869   0.1092   0.7159
Ne1391     Ne     0.4234   0.0932   0.6996
Na1392     Na     0.3981   0.1182   0.6752
F1393     F     0.6408   0.2159   0.8631
Ne1394     Ne     0.6568   0.1996   0.8266
Na1395     Na     0.6318   0.1752   0.8519
F1396     F     0.6408   0.3631   0.7159
Ne1397     Ne     0.6568   0.3266   0.6996
Na1398     Na     0.6318   0.3519   0.6752
F1399     F     0.8631   0.1408   0.7159
Ne1400     Ne     0.8266   0.1568   0.6996
Na1401     Na     0.8519   0.1318   0.6752
F1402     F     0.7159   0.3631   0.6408
Ne1403     Ne     0.6996   0.3266   0.6568
Na1404     Na     0.6752   0.3519   0.6318
F1405     F     0.8631   0.2159   0.6408
Ne1406     Ne     0.8266   0.1996   0.6568
Na1407     Na     0.8519   0.1752   0.6318
Be1408     Be     0.7215   0.252   0.6726
Er1409     Er     0.6812   0.2931   0.7117
Er1410     Er     0.7117   0.2931   0.6812
Ti1411     Ti     0.7215   0.3046   0.7215
Be1412     Be     0.6726   0.252   0.7215
B1413     B     0.663   0.2112   0.7112
B1414     B     0.7112   0.2112   0.663
Be1415     Be     0.752   0.2215   0.6726
Er1416     Er     0.7931   0.1812   0.7117
Er1417     Er     0.7931   0.2117   0.6812
Ti1418     Ti     0.8046   0.2215   0.7215
Be1419     Be     0.752   0.1726   0.7215
B1420     B     0.7112   0.163   0.7112
Be1421     Be     0.7215   0.1726   0.752
Er1422     Er     0.7117   0.1812   0.7931
Er1423     Er     0.6812   0.2117   0.7931
Ti1424     Ti     0.7215   0.2215   0.8046
Be1425     Be     0.6726   0.2215   0.752
F1426     F     0.7159   0.1408   0.8631
Ne1427     Ne     0.6996   0.1568   0.8266
Na1428     Na     0.6752   0.1318   0.8519
V1429     V     0.6514   0.1819   0.6819
V1430     V     0.6818   0.1819   0.6514
V1431     V     0.6819   0.1514   0.6819
Li1432     Li     0.5842   0.1147   0.5842
Li1433     Li     0.5842   0.0842   0.6147
Li1434     Li     0.6147   0.0842   0.5842
Li1435     Li     0.6147   0.1658   0.6658
Li1436     Li     0.5842   0.1353   0.6658
Li1437     Li     0.5842   0.1658   0.6353
V1438     V     0.5986   0.1819   0.5682
V1439     V     0.5682   0.1819   0.5986
V1440     V     0.5682   0.1514   0.5682
Li1441     Li     0.6353   0.1658   0.5842
Li1442     Li     0.6658   0.1658   0.6147
Li1443     Li     0.6658   0.1353   0.5842
V1444     V     0.6818   0.0986   0.5682
V1445     V     0.6818   0.0682   0.5986
V1446     V     0.6514   0.0682   0.5682
V1447     V     0.5986   0.0682   0.6818
V1448     V     0.5682   0.0986   0.6818
V1449     V     0.5682   0.0682   0.6514
Li1450     Li     0.6658   0.1147   0.6658
Li1451     Li     0.6353   0.0842   0.6658
Li1452     Li     0.6658   0.0842   0.6353
Ce1453     Ce     0.5   0.8605   0.6395
S1454     S     0.5133   0.8221   0.6539
S1455     S     0.4867   0.8461   0.6779
S1456     S     0.6779   0.4867   0.8461
Ce1457     Ce     0.6395   0.5   0.8605
S1458     S     0.6539   0.5133   0.8221
S1459     S     0.6779   0.2633   0.9039
Ce1460     Ce     0.6395   0.25   0.8895
S1461     S     0.6539   0.2367   0.9279
S1462     S     0.2633   0.9039   0.6779
Ce1463     Ce     0.25   0.8895   0.6395
S1464     S     0.2367   0.9279   0.6539
Ce1465     Ce     0.6395   0.8895   0.25
S1466     S     0.6779   0.9039   0.2633
S1467     S     0.6539   0.9279   0.2367
Ce1468     Ce     0.1105   0.3605   0.75
S1469     S     0.0961   0.3221   0.7367
S1470     S     0.0721   0.3461   0.7633
Ce1471     Ce     0.3895   0.6395   0.75
S1472     S     0.4039   0.6779   0.7633
S1473     S     0.4279   0.6539   0.7367
Ce1474     Ce     0.6395   0.3895   0.75
S1475     S     0.6779   0.4039   0.7633
S1476     S     0.6539   0.4279   0.7367
H1477     H     0.3598   0.136   0.8902
H1478     H     0.3902   0.136   0.8598
He1479     He     0.375   0.0987   0.875
H1480     H     0.3598   0.614   0.8598
H1481     H     0.3902   0.614   0.8902
He1482     He     0.375   0.6514   0.875
H1483     H     0.3598   0.3598   0.114
H1484     H     0.3902   0.3902   0.114
He1485     He     0.375   0.375   0.1514
H1486     H     0.3902   0.3598   0.636
H1487     H     0.3598   0.3902   0.636
He1488     He     0.375   0.375   0.5986
H1489     H     0.614   0.3598   0.8598
H1490     H     0.614   0.3902   0.8902
He1491     He     0.6514   0.375   0.875
H1492     H     0.136   0.3598   0.8902
H1493     H     0.136   0.3902   0.8598
He1494     He     0.0986   0.375   0.875
F1495     F     0.4659   0.3908   0.6369
Ne1496     Ne     0.4496   0.4068   0.6734
Na1497     Na     0.4252   0.3818   0.6481
F1498     F     0.3908   0.4659   0.6369
Ne1499     Ne     0.4068   0.4496   0.6734
Na1500     Na     0.3818   0.4252   0.6481
F1501     F     0.6131   0.4659   0.8592
Ne1502     Ne     0.5766   0.4496   0.8432
Na1503     Na     0.6019   0.4252   0.8682
F1504     F     0.3908   0.6131   0.7841
Ne1505     Ne     0.4069   0.5766   0.8004
Na1506     Na     0.3818   0.6019   0.8248
F1507     F     0.4659   0.6131   0.8592
Ne1508     Ne     0.4496   0.5766   0.8432
Na1509     Na     0.4252   0.6019   0.8682
B1510     B     0.4612   0.413   0.7888
B1511     B     0.413   0.4612   0.7888
Be1512     Be     0.4715   0.4226   0.748
Er1513     Er     0.4312   0.4617   0.7069
Er1514     Er     0.4617   0.4312   0.7069
Ti1515     Ti     0.4715   0.4715   0.6954
Be1516     Be     0.4226   0.4715   0.748
Be1517     Be     0.4715   0.502   0.8274
Er1518     Er     0.4312   0.5431   0.7883
Er1519     Er     0.4617   0.5431   0.8188
Ti1520     Ti     0.4715   0.5546   0.7785
Be1521     Be     0.4226   0.502   0.7785
B1522     B     0.4612   0.4612   0.837
Be1523     Be     0.502   0.4226   0.7785
Er1524     Er     0.5431   0.4312   0.7883
Er1525     Er     0.5431   0.4617   0.8188
Ti1526     Ti     0.5546   0.4715   0.7785
Be1527     Be     0.502   0.4715   0.8274
F1528     F     0.6131   0.3908   0.7841
Ne1529     Ne     0.5766   0.4068   0.8004
Na1530     Na     0.6019   0.3818   0.8248
F1531     F     0.3592   0.4659   0.1131
Ne1532     Ne     0.3432   0.4496   0.0766
Na1533     Na     0.3682   0.4252   0.1019
F1534     F     0.1369   0.4659   0.8908
Ne1535     Ne     0.1734   0.4496   0.9068
Na1536     Na     0.1481   0.4252   0.8818
F1537     F     0.1369   0.3908   0.9659
Ne1538     Ne     0.1734   0.4068   0.9496
Na1539     Na     0.1481   0.3818   0.9252
F1540     F     0.2841   0.3908   0.1131
Ne1541     Ne     0.3004   0.4068   0.0766
Na1542     Na     0.3248   0.3818   0.1019
F1543     F     0.3592   0.6131   0.9659
Ne1544     Ne     0.3432   0.5766   0.9496
Na1545     Na     0.3682   0.6019   0.9252
B1546     B     0.2888   0.4612   0.913
B1547     B     0.2888   0.413   0.9612
Be1548     Be     0.248   0.4226   0.9715
Er1549     Er     0.2069   0.4312   0.9617
Er1550     Er     0.2069   0.4617   0.9312
Ti1551     Ti     0.1954   0.4715   0.9715
Be1552     Be     0.248   0.4715   0.9226
Be1553     Be     0.3274   0.502   0.9715
Er1554     Er     0.3188   0.5431   0.9617
Er1555     Er     0.2883   0.5431   0.9312
Ti1556     Ti     0.2785   0.5546   0.9715
Be1557     Be     0.2785   0.502   0.9226
B1558     B     0.337   0.4612   0.9612
Be1559     Be     0.2785   0.4226   0.002
Er1560     Er     0.2883   0.4312   0.0431
Er1561     Er     0.3188   0.4617   0.0431
Ti1562     Ti     0.2785   0.4715   0.0546
Be1563     Be     0.3274   0.4715   0.002
F1564     F     0.2841   0.6131   0.8908
Ne1565     Ne     0.3004   0.5766   0.9068
Na1566     Na     0.3248   0.6019   0.8818
F1567     F     0.3908   0.2841   0.1131
Ne1568     Ne     0.4068   0.3004   0.0766
Na1569     Na     0.3818   0.3248   0.1019
F1570     F     0.6131   0.2841   0.8908
Ne1571     Ne     0.5766   0.3004   0.9068
Na1572     Na     0.6019   0.3248   0.8818
F1573     F     0.4659   0.3592   0.1131
Ne1574     Ne     0.4496   0.3432   0.0766
Na1575     Na     0.4252   0.3682   0.1019
F1576     F     0.4659   0.1369   0.8908
Ne1577     Ne     0.4496   0.1734   0.9068
Na1578     Na     0.4252   0.1481   0.8818
F1579     F     0.3908   0.1369   0.9659
Ne1580     Ne     0.4068   0.1734   0.9496
Na1581     Na     0.3818   0.1481   0.9252
B1582     B     0.4612   0.337   0.9612
Be1583     Be     0.502   0.3274   0.9715
Er1584     Er     0.5431   0.3188   0.9617
Er1585     Er     0.5431   0.2883   0.9312
Ti1586     Ti     0.5546   0.2785   0.9715
Be1587     Be     0.502   0.2785   0.9226
B1588     B     0.4612   0.2888   0.913
Be1589     Be     0.4226   0.248   0.9715
Er1590     Er     0.4312   0.2069   0.9617
Er1591     Er     0.4617   0.2069   0.9312
Ti1592     Ti     0.4715   0.1954   0.9715
Be1593     Be     0.4715   0.248   0.9226
B1594     B     0.413   0.2888   0.9612
Be1595     Be     0.4715   0.3274   0.002
Er1596     Er     0.4312   0.2883   0.0431
Er1597     Er     0.4617   0.3188   0.0431
Ti1598     Ti     0.4715   0.2785   0.0546
Be1599     Be     0.4226   0.2785   0.002
F1600     F     0.6131   0.3592   0.9659
Ne1601     Ne     0.5766   0.3432   0.9496
Na1602     Na     0.6019   0.3682   0.9252
F1603     F     0.2841   0.3592   0.6369
Ne1604     Ne     0.3004   0.3432   0.6734
Na1605     Na     0.3248   0.3682   0.6481
F1606     F     0.1369   0.2841   0.8592
Ne1607     Ne     0.1734   0.3004   0.8432
Na1608     Na     0.1481   0.3248   0.8682
F1609     F     0.3592   0.1369   0.7841
Ne1610     Ne     0.3432   0.1734   0.8004
Na1611     Na     0.3682   0.1481   0.8248
F1612     F     0.1369   0.3592   0.7841
Ne1613     Ne     0.1734   0.3432   0.8004
Na1614     Na     0.1481   0.3682   0.8248
F1615     F     0.3592   0.2841   0.6369
Ne1616     Ne     0.3432   0.3004   0.6734
Na1617     Na     0.3682   0.3248   0.6481
Be1618     Be     0.3274   0.248   0.7785
Er1619     Er     0.3188   0.2069   0.7883
Er1620     Er     0.2883   0.2069   0.8188
Ti1621     Ti     0.2785   0.1954   0.7785
Be1622     Be     0.2785   0.248   0.8274
B1623     B     0.337   0.2888   0.7888
B1624     B     0.2888   0.337   0.7888
Be1625     Be     0.3274   0.2785   0.748
Er1626     Er     0.2883   0.3188   0.7069
Er1627     Er     0.3188   0.2883   0.7069
Ti1628     Ti     0.2785   0.2785   0.6954
Be1629     Be     0.2785   0.3274   0.748
B1630     B     0.2888   0.2888   0.837
Be1631     Be     0.248   0.3274   0.7785
Er1632     Er     0.2069   0.3188   0.7883
Er1633     Er     0.2069   0.2883   0.8188
Ti1634     Ti     0.1954   0.2785   0.7785
Be1635     Be     0.248   0.2785   0.8274
F1636     F     0.2841   0.1369   0.8592
Ne1637     Ne     0.3004   0.1734   0.8432
Na1638     Na     0.3248   0.1481   0.8682
Li1639     Li     0.3342   0.3342   0.8853
Li1640     Li     0.3342   0.3647   0.9158
Li1641     Li     0.3647   0.3342   0.9158
V1642     V     0.4318   0.4014   0.8181
V1643     V     0.4014   0.4318   0.8182
V1644     V     0.4318   0.4318   0.8486
V1645     V     0.3486   0.3182   0.8182
V1646     V     0.3182   0.3486   0.8181
V1647     V     0.3182   0.3182   0.8486
V1648     V     0.3486   0.4318   0.9318
V1649     V     0.3181   0.4014   0.9318
V1650     V     0.3182   0.4318   0.9014
Li1651     Li     0.3342   0.3853   0.8342
Li1652     Li     0.3647   0.4158   0.8342
Li1653     Li     0.3342   0.4158   0.8647
Li1654     Li     0.4158   0.3853   0.9158
Li1655     Li     0.3853   0.4158   0.9158
Li1656     Li     0.4158   0.4158   0.8853
V1657     V     0.4318   0.3486   0.9318
V1658     V     0.4014   0.3181   0.9318
V1659     V     0.4318   0.3182   0.9014
Li1660     Li     0.4158   0.3647   0.8342
Li1661     Li     0.3853   0.3342   0.8342
Li1662     Li     0.4158   0.3342   0.8647
S1663     S     0.8221   0.5961   0.7367
Ce1664     Ce     0.8605   0.6105   0.75
S1665     S     0.8461   0.5721   0.7633
Ce1666     Ce     0.8605   0.75   0.6105
S1667     S     0.8221   0.7367   0.5961
S1668     S     0.8461   0.7633   0.5721
H1669     H     0.1402   0.6402   0.386
H1670     H     0.1098   0.6098   0.386
He1671     He     0.125   0.625   0.3486
H1672     H     0.364   0.6402   0.6098
H1673     H     0.364   0.6098   0.6402
He1674     He     0.4014   0.625   0.625
H1675     H     0.1098   0.6402   0.864
H1676     H     0.1402   0.6098   0.864
He1677     He     0.125   0.625   0.9014
H1678     H     0.886   0.6402   0.6402
H1679     H     0.886   0.6098   0.6098
He1680     He     0.8486   0.625   0.625
H1681     H     0.1098   0.864   0.6402
H1682     H     0.1402   0.864   0.6098
He1683     He     0.125   0.9014   0.625
H1684     H     0.1098   0.386   0.6098
H1685     H     0.1402   0.386   0.6402
He1686     He     0.125   0.3486   0.625
F1687     F     0.1408   0.7159   0.8631
Ne1688     Ne     0.1569   0.6996   0.8266
Na1689     Na     0.1318   0.6752   0.8519
F1690     F     0.3631   0.7159   0.6408
Ne1691     Ne     0.3266   0.6996   0.6568
Na1692     Na     0.3519   0.6752   0.6318
F1693     F     0.3631   0.6408   0.7159
Ne1694     Ne     0.3266   0.6568   0.6996
Na1695     Na     0.3519   0.6318   0.6752
F1696     F     0.2159   0.8631   0.6408
Ne1697     Ne     0.1996   0.8266   0.6568
Na1698     Na     0.1753   0.8519   0.6318
F1699     F     0.1408   0.8631   0.7159
Ne1700     Ne     0.1568   0.8266   0.6996
Na1701     Na     0.1318   0.8519   0.6752
B1702     B     0.2112   0.663   0.7112
Be1703     Be     0.252   0.7215   0.6726
Er1704     Er     0.2931   0.6812   0.7117
Er1705     Er     0.2931   0.7117   0.6812
Ti1706     Ti     0.3046   0.7215   0.7215
Be1707     Be     0.252   0.6726   0.7215
Be1708     Be     0.2215   0.6726   0.752
Er1709     Er     0.2117   0.6812   0.7931
Er1710     Er     0.1812   0.7117   0.7931
Ti1711     Ti     0.2215   0.7215   0.8046
Be1712     Be     0.1726   0.7215   0.752
B1713     B     0.163   0.7112   0.7112
B1714     B     0.2112   0.7112   0.663
Be1715     Be     0.1726   0.752   0.7215
Er1716     Er     0.1812   0.7931   0.7117
Er1717     Er     0.2117   0.7931   0.6812
Ti1718     Ti     0.2215   0.8046   0.7215
Be1719     Be     0.2215   0.752   0.6726
F1720     F     0.2159   0.6408   0.8631
Ne1721     Ne     0.1996   0.6568   0.8266
Na1722     Na     0.1752   0.6318   0.8519
F1723     F     0.8869   0.6408   0.5341
Ne1724     Ne     0.9234   0.6568   0.5504
Na1725     Na     0.8981   0.6318   0.5748
F1726     F     0.0341   0.6408   0.3869
Ne1727     Ne     0.0504   0.6568   0.4234
Na1728     Na     0.0748   0.6318   0.3981
F1729     F     0.0341   0.8631   0.6092
Ne1730     Ne     0.0504   0.8266   0.5932
Na1731     Na     0.0748   0.8519   0.6182
F1732     F     0.8869   0.7159   0.6092
Ne1733     Ne     0.9234   0.6996   0.5932
Na1734     Na     0.8981   0.6752   0.6182
F1735     F     0.1092   0.7159   0.3869
Ne1736     Ne     0.0932   0.6996   0.4234
Na1737     Na     0.1182   0.6752   0.3981
Be1738     Be     0.998   0.7215   0.5774
Er1739     Er     0.9569   0.6812   0.5383
Er1740     Er     0.9569   0.7117   0.5688
Ti1741     Ti     0.9454   0.7215   0.5285
Be1742     Be     0.998   0.6726   0.5285
B1743     B     0.087   0.7112   0.5388
B1744     B     0.0388   0.7112   0.587
Be1745     Be     0.0774   0.752   0.5285
Er1746     Er     0.0688   0.7931   0.5383
Er1747     Er     0.0383   0.7931   0.5688
Ti1748     Ti     0.0285   0.8046   0.5285
Be1749     Be     0.0285   0.752   0.5774
B1750     B     0.0388   0.663   0.5388
Be1751     Be     0.0774   0.7215   0.498
Er1752     Er     0.0688   0.7117   0.4569
Er1753     Er     0.0383   0.6812   0.4569
Ti1754     Ti     0.0285   0.7215   0.4454
Be1755     Be     0.0285   0.6726   0.498
F1756     F     0.1092   0.8631   0.5341
Ne1757     Ne     0.0932   0.8266   0.5504
Na1758     Na     0.1182   0.8519   0.5748
F1759     F     0.8869   0.6092   0.7159
Ne1760     Ne     0.9234   0.5932   0.6996
Na1761     Na     0.8981   0.6182   0.6752
F1762     F     0.1092   0.3869   0.7159
Ne1763     Ne     0.0932   0.4234   0.6996
Na1764     Na     0.1182   0.3981   0.6752
F1765     F     0.0341   0.6092   0.8631
Ne1766     Ne     0.0504   0.5932   0.8266
Na1767     Na     0.0748   0.6182   0.8519
F1768     F     0.0341   0.3869   0.6408
Ne1769     Ne     0.0504   0.4234   0.6568
Na1770     Na     0.0748   0.3981   0.6318
F1771     F     0.8869   0.5341   0.6408
Ne1772     Ne     0.9234   0.5504   0.6568
Na1773     Na     0.8981   0.5748   0.6318
Be1774     Be     0.998   0.5285   0.6726
Er1775     Er     0.9569   0.5383   0.6812
Er1776     Er     0.9569   0.5688   0.7117
Ti1777     Ti     0.9454   0.5285   0.7215
Be1778     Be     0.998   0.5774   0.7215
B1779     B     0.087   0.5388   0.7112
B1780     B     0.0388   0.587   0.7112
Be1781     Be     0.0774   0.5285   0.752
Er1782     Er     0.0688   0.5383   0.7931
Er1783     Er     0.0383   0.5688   0.7931
Ti1784     Ti     0.0285   0.5285   0.8046
Be1785     Be     0.0285   0.5774   0.752
B1786     B     0.0388   0.5388   0.663
Be1787     Be     0.0285   0.498   0.6726
Er1788     Er     0.0688   0.4569   0.7117
Er1789     Er     0.0383   0.4569   0.6812
Ti1790     Ti     0.0285   0.4454   0.7215
Be1791     Be     0.0774   0.498   0.7215
F1792     F     0.1092   0.5341   0.8631
Ne1793     Ne     0.0932   0.5504   0.8266
Na1794     Na     0.1182   0.5748   0.8519
F1795     F     0.3631   0.5341   0.6092
Ne1796     Ne     0.3266   0.5504   0.5932
Na1797     Na     0.3519   0.5748   0.6182
F1798     F     0.3631   0.6092   0.5341
Ne1799     Ne     0.3266   0.5932   0.5504
Na1800     Na     0.3519   0.6182   0.5748
F1801     F     0.1408   0.3869   0.5341
Ne1802     Ne     0.1568   0.4234   0.5504
Na1803     Na     0.1318   0.3981   0.5748
F1804     F     0.2159   0.6092   0.3869
Ne1805     Ne     0.1996   0.5932   0.4234
Na1806     Na     0.1752   0.6182   0.3981
F1807     F     0.1408   0.5341   0.3869
Ne1808     Ne     0.1569   0.5504   0.4234
Na1809     Na     0.1318   0.5748   0.3981
B1810     B     0.2112   0.587   0.5388
B1811     B     0.2112   0.5388   0.587
Be1812     Be     0.252   0.5285   0.5774
Er1813     Er     0.2931   0.5383   0.5688
Er1814     Er     0.2931   0.5688   0.5383
Ti1815     Ti     0.3046   0.5285   0.5285
Be1816     Be     0.252   0.5774   0.5285
Be1817     Be     0.1726   0.5285   0.498
Er1818     Er     0.1812   0.5383   0.4569
Er1819     Er     0.2117   0.5688   0.4569
Ti1820     Ti     0.2215   0.5285   0.4454
Be1821     Be     0.2215   0.5774   0.498
B1822     B     0.163   0.5388   0.5388
Be1823     Be     0.2215   0.498   0.5774
Er1824     Er     0.1812   0.4569   0.5383
Er1825     Er     0.2117   0.4569   0.5688
Ti1826     Ti     0.2215   0.4454   0.5285
Be1827     Be     0.1726   0.498   0.5285
F1828     F     0.2159   0.3869   0.6092
Ne1829     Ne     0.1996   0.4234   0.5932
Na1830     Na     0.1753   0.3981   0.6182
Li1831     Li     0.1658   0.6658   0.6147
Li1832     Li     0.1353   0.6658   0.5842
Li1833     Li     0.1658   0.6353   0.5842
V1834     V     0.1818   0.5986   0.5681
V1835     V     0.1818   0.5682   0.5986
V1836     V     0.1514   0.5681   0.5681
Li1837     Li     0.1658   0.5842   0.6353
Li1838     Li     0.1658   0.6147   0.6658
Li1839     Li     0.1353   0.5842   0.6658
V1840     V     0.1818   0.6819   0.6514
V1841     V     0.1514   0.6818   0.6818
V1842     V     0.1819   0.6514   0.6818
Li1843     Li     0.0842   0.6147   0.5842
Li1844     Li     0.0842   0.5842   0.6147
Li1845     Li     0.1147   0.5842   0.5842
V1846     V     0.0986   0.5682   0.6818
V1847     V     0.0682   0.5682   0.6514
V1848     V     0.0682   0.5986   0.6819
V1849     V     0.0682   0.6819   0.5986
V1850     V     0.0986   0.6818   0.5682
V1851     V     0.0682   0.6514   0.5682
Li1852     Li     0.1147   0.6658   0.6658
Li1853     Li     0.0842   0.6658   0.6353
Li1854     Li     0.0842   0.6353   0.6658
Ce1855     Ce     0.1105   0.75   0.3605
S1856     S     0.0721   0.7633   0.3461
S1857     S     0.0961   0.7367   0.3221
Ce1858     Ce     0.3605   0.75   0.1105
S1859     S     0.3221   0.7367   0.0961
S1860     S     0.3461   0.7633   0.0721
Ce1861     Ce     0.6395   0.75   0.3895
S1862     S     0.6779   0.7633   0.4039
S1863     S     0.6539   0.7367   0.4279
Ce1864     Ce     0.3895   0.75   0.6395
S1865     S     0.4279   0.7367   0.6539
S1866     S     0.4039   0.7633   0.6779
H1867     H     0.3598   0.114   0.3598
H1868     H     0.3902   0.114   0.3902
He1869     He     0.375   0.1514   0.375
H1870     H     0.136   0.8902   0.3598
H1871     H     0.136   0.8598   0.3902
He1872     He     0.0986   0.875   0.375
H1873     H     0.614   0.8598   0.3598
H1874     H     0.614   0.8902   0.3902
He1875     He     0.6514   0.875   0.375
H1876     H     0.3598   0.636   0.3902
H1877     H     0.3902   0.636   0.3598
He1878     He     0.375   0.5986   0.375
H1879     H     0.3598   0.8902   0.136
H1880     H     0.3902   0.8598   0.136
He1881     He     0.375   0.875   0.0987
H1882     H     0.3598   0.8598   0.614
H1883     H     0.3902   0.8902   0.614
He1884     He     0.375   0.875   0.6514
F1885     F     0.4659   0.1131   0.3592
Ne1886     Ne     0.4496   0.0766   0.3432
Na1887     Na     0.4252   0.1019   0.3682
F1888     F     0.6131   0.9659   0.3592
Ne1889     Ne     0.5766   0.9496   0.3431
Na1890     Na     0.6019   0.9252   0.3682
F1891     F     0.3908   0.1131   0.2841
Ne1892     Ne     0.4069   0.0766   0.3004
Na1893     Na     0.3818   0.1019   0.3248
F1894     F     0.4659   0.8908   0.1369
Ne1895     Ne     0.4496   0.9068   0.1734
Na1896     Na     0.4252   0.8818   0.1481
F1897     F     0.3908   0.9659   0.1369
Ne1898     Ne     0.4068   0.9496   0.1734
Na1899     Na     0.3818   0.9252   0.1481
B1900     B     0.4612   0.9612   0.337
Be1901     Be     0.502   0.9226   0.2785
Er1902     Er     0.5431   0.9617   0.3188
Er1903     Er     0.5431   0.9312   0.2883
Ti1904     Ti     0.5546   0.9715   0.2785
Be1905     Be     0.502   0.9715   0.3274
B1906     B     0.4612   0.913   0.2888
Be1907     Be     0.4226   0.9715   0.248
Er1908     Er     0.4312   0.9617   0.2069
Er1909     Er     0.4617   0.9312   0.2069
Ti1910     Ti     0.4715   0.9715   0.1954
Be1911     Be     0.4715   0.9226   0.248
B1912     B     0.413   0.9612   0.2888
Be1913     Be     0.4226   0.002   0.2785
Er1914     Er     0.4617   0.0431   0.3188
Er1915     Er     0.4312   0.0431   0.2883
Ti1916     Ti     0.4715   0.0546   0.2785
Be1917     Be     0.4715   0.002   0.3274
F1918     F     0.6131   0.8908   0.2841
Ne1919     Ne     0.5766   0.9068   0.3004
Na1920     Na     0.6019   0.8818   0.3248
F1921     F     0.3592   0.9659   0.6131
Ne1922     Ne     0.3432   0.9496   0.5766
Na1923     Na     0.3682   0.9252   0.6019
F1924     F     0.2841   0.8908   0.6131
Ne1925     Ne     0.3004   0.9068   0.5766
Na1926     Na     0.3248   0.8818   0.6019
F1927     F     0.2841   0.1131   0.3908
Ne1928     Ne     0.3004   0.0766   0.4068
Na1929     Na     0.3248   0.1019   0.3818
F1930     F     0.1369   0.8908   0.4659
Ne1931     Ne     0.1734   0.9068   0.4496
Na1932     Na     0.1481   0.8818   0.4252
F1933     F     0.3592   0.1131   0.4659
Ne1934     Ne     0.3432   0.0766   0.4496
Na1935     Na     0.3682   0.1019   0.4252
B1936     B     0.2888   0.9612   0.413
B1937     B     0.2888   0.913   0.4612
Be1938     Be     0.248   0.9715   0.4226
Er1939     Er     0.2069   0.9617   0.4312
Er1940     Er     0.2069   0.9312   0.4617
Ti1941     Ti     0.1954   0.9715   0.4715
Be1942     Be     0.248   0.9226   0.4715
Be1943     Be     0.3274   0.002   0.4715
Er1944     Er     0.2883   0.0431   0.4312
Er1945     Er     0.3188   0.0431   0.4617
Ti1946     Ti     0.2785   0.0546   0.4715
Be1947     Be     0.2785   0.002   0.4226
B1948     B     0.337   0.9612   0.4612
Be1949     Be     0.2785   0.9226   0.502
Er1950     Er     0.3188   0.9617   0.5431
Er1951     Er     0.2883   0.9312   0.5431
Ti1952     Ti     0.2785   0.9715   0.5546
Be1953     Be     0.3274   0.9715   0.502
F1954     F     0.1369   0.9659   0.3908
Ne1955     Ne     0.1734   0.9496   0.4068
Na1956     Na     0.1481   0.9252   0.3818
F1957     F     0.3908   0.6369   0.4659
Ne1958     Ne     0.4068   0.6734   0.4496
Na1959     Na     0.3818   0.6481   0.4252
F1960     F     0.4659   0.6369   0.3908
Ne1961     Ne     0.4496   0.6734   0.4068
Na1962     Na     0.4252   0.6481   0.3818
F1963     F     0.6131   0.7841   0.3908
Ne1964     Ne     0.5766   0.8004   0.4069
Na1965     Na     0.6019   0.8248   0.3818
F1966     F     0.4659   0.8592   0.6131
Ne1967     Ne     0.4496   0.8432   0.5766
Na1968     Na     0.4252   0.8682   0.6019
F1969     F     0.6131   0.8592   0.4659
Ne1970     Ne     0.5766   0.8432   0.4496
Na1971     Na     0.6019   0.8682   0.4252
B1972     B     0.413   0.7888   0.4612
B1973     B     0.4612   0.7888   0.413
Be1974     Be     0.4226   0.748   0.4715
Er1975     Er     0.4617   0.7069   0.4312
Er1976     Er     0.4312   0.7069   0.4617
Ti1977     Ti     0.4715   0.6954   0.4715
Be1978     Be     0.4715   0.748   0.4226
Be1979     Be     0.502   0.8274   0.4715
Er1980     Er     0.5431   0.7883   0.4312
Er1981     Er     0.5431   0.8188   0.4617
Ti1982     Ti     0.5546   0.7785   0.4715
Be1983     Be     0.502   0.7785   0.4226
B1984     B     0.4612   0.837   0.4612
Be1985     Be     0.4226   0.7785   0.502
Er1986     Er     0.4312   0.7883   0.5431
Er1987     Er     0.4617   0.8188   0.5431
Ti1988     Ti     0.4715   0.7785   0.5546
Be1989     Be     0.4715   0.8274   0.502
F1990     F     0.3908   0.7841   0.6131
Ne1991     Ne     0.4068   0.8004   0.5766
Na1992     Na     0.3818   0.8248   0.6019
F1993     F     0.3592   0.6369   0.2841
Ne1994     Ne     0.3432   0.6734   0.3004
Na1995     Na     0.3682   0.6481   0.3248
F1996     F     0.2841   0.6369   0.3592
Ne1997     Ne     0.3004   0.6734   0.3432
Na1998     Na     0.3248   0.6481   0.3682
F1999     F     0.3592   0.7841   0.1369
Ne2000     Ne     0.3432   0.8004   0.1734
Na2001     Na     0.3682   0.8248   0.1481
F2002     F     0.1369   0.7841   0.3592
Ne2003     Ne     0.1734   0.8004   0.3432
Na2004     Na     0.1481   0.8248   0.3682
F2005     F     0.2841   0.8592   0.1369
Ne2006     Ne     0.3004   0.8432   0.1734
Na2007     Na     0.3248   0.8682   0.1481
B2008     B     0.2888   0.7888   0.337
Be2009     Be     0.248   0.7785   0.3274
Er2010     Er     0.2069   0.7883   0.3188
Er2011     Er     0.2069   0.8188   0.2883
Ti2012     Ti     0.1954   0.7785   0.2785
Be2013     Be     0.248   0.8274   0.2785
B2014     B     0.337   0.7888   0.2888
Be2015     Be     0.3274   0.748   0.2785
Er2016     Er     0.3188   0.7069   0.2883
Er2017     Er     0.2883   0.7069   0.3188
Ti2018     Ti     0.2785   0.6954   0.2785
Be2019     Be     0.2785   0.748   0.3274
B2020     B     0.2888   0.837   0.2888
Be2021     Be     0.2785   0.8274   0.248
Er2022     Er     0.3188   0.7883   0.2069
Er2023     Er     0.2883   0.8188   0.2069
Ti2024     Ti     0.2785   0.7785   0.1954
Be2025     Be     0.3274   0.7785   0.248
F2026     F     0.1369   0.8592   0.2841
Ne2027     Ne     0.1734   0.8432   0.3004
Na2028     Na     0.1481   0.8682   0.3248
V2029     V     0.3486   0.8182   0.3181
V2030     V     0.3182   0.8181   0.3486
V2031     V     0.3181   0.8486   0.3181
V2032     V     0.4014   0.8182   0.4318
V2033     V     0.4318   0.8181   0.4014
V2034     V     0.4318   0.8486   0.4318
Li2035     Li     0.4158   0.9158   0.3853
Li2036     Li     0.3853   0.9158   0.4158
Li2037     Li     0.4158   0.8853   0.4158
V2038     V     0.4014   0.9318   0.3182
V2039     V     0.4318   0.9318   0.3486
V2040     V     0.4318   0.9014   0.3182
Li2041     Li     0.3853   0.8342   0.3342
Li2042     Li     0.4158   0.8342   0.3647
Li2043     Li     0.4158   0.8647   0.3342
Li2044     Li     0.3342   0.8853   0.3342
Li2045     Li     0.3342   0.9158   0.3647
Li2046     Li     0.3647   0.9158   0.3342
V2047     V     0.3486   0.9318   0.4318
V2048     V     0.3182   0.9318   0.4014
V2049     V     0.3182   0.9014   0.4318
Li2050     Li     0.3342   0.8342   0.3853
Li2051     Li     0.3647   0.8342   0.4158
Li2052     Li     0.3342   0.8647   0.4158
S2053     S     0.5961   0.7367   0.8221
Ce2054     Ce     0.6105   0.75   0.8605
S2055     S     0.5721   0.7633   0.8461
Ce2056     Ce     0.75   0.6105   0.8605
S2057     S     0.7367   0.5961   0.8221
S2058     S     0.7633   0.5721   0.8461
H2059     H     0.6402   0.386   0.1402
H2060     H     0.6098   0.386   0.1098
He2061     He     0.625   0.3486   0.125
H2062     H     0.6098   0.864   0.1402
H2063     H     0.6402   0.864   0.1098
He2064     He     0.625   0.9014   0.125
H2065     H     0.6402   0.6402   0.886
H2066     H     0.6098   0.6098   0.886
He2067     He     0.625   0.625   0.8486
H2068     H     0.6098   0.6402   0.364
H2069     H     0.6402   0.6098   0.364
He2070     He     0.625   0.625   0.4014
H2071     H     0.864   0.6402   0.1098
H2072     H     0.864   0.6098   0.1402
He2073     He     0.9014   0.625   0.125
H2074     H     0.386   0.6402   0.1402
H2075     H     0.386   0.6098   0.1098
He2076     He     0.3486   0.625   0.125
F2077     F     0.6092   0.5341   0.3631
Ne2078     Ne     0.5932   0.5504   0.3266
Na2079     Na     0.6182   0.5748   0.3519
F2080     F     0.5341   0.6092   0.3631
Ne2081     Ne     0.5504   0.5932   0.3266
Na2082     Na     0.5748   0.6182   0.3519
F2083     F     0.3869   0.5341   0.1408
Ne2084     Ne     0.4234   0.5504   0.1568
Na2085     Na     0.3981   0.5748   0.1318
F2086     F     0.6092   0.3869   0.2159
Ne2087     Ne     0.5932   0.4234   0.1996
Na2088     Na     0.6182   0.3981   0.1752
F2089     F     0.3869   0.6092   0.2159
Ne2090     Ne     0.4234   0.5932   0.1996
Na2091     Na     0.3981   0.6182   0.1752
B2092     B     0.5388   0.5388   0.163
Be2093     Be     0.498   0.5774   0.2215
Er2094     Er     0.4569   0.5383   0.1812
Er2095     Er     0.4569   0.5688   0.2117
Ti2096     Ti     0.4454   0.5285   0.2215
Be2097     Be     0.498   0.5285   0.1726
B2098     B     0.5388   0.587   0.2112
Be2099     Be     0.5285   0.5774   0.252
Er2100     Er     0.5688   0.5383   0.2931
Er2101     Er     0.5383   0.5688   0.2931
Ti2102     Ti     0.5285   0.5285   0.3046
Be2103     Be     0.5774   0.5285   0.252
B2104     B     0.587   0.5388   0.2112
Be2105     Be     0.5285   0.498   0.1726
Er2106     Er     0.5383   0.4569   0.1812
Er2107     Er     0.5688   0.4569   0.2117
Ti2108     Ti     0.5285   0.4454   0.2215
Be2109     Be     0.5774   0.498   0.2215
F2110     F     0.5341   0.3869   0.1408
Ne2111     Ne     0.5504   0.4234   0.1568
Na2112     Na     0.5748   0.3981   0.1318
F2113     F     0.5341   0.6408   0.8869
Ne2114     Ne     0.5504   0.6568   0.9234
Na2115     Na     0.5748   0.6318   0.8981
F2116     F     0.6092   0.7159   0.8869
Ne2117     Ne     0.5932   0.6996   0.9234
Na2118     Na     0.6182   0.6752   0.8981
F2119     F     0.3869   0.7159   0.1092
Ne2120     Ne     0.4234   0.6996   0.0932
Na2121     Na     0.3981   0.6752   0.1182
F2122     F     0.6092   0.8631   0.0341
Ne2123     Ne     0.5932   0.8266   0.0504
Na2124     Na     0.6182   0.8519   0.0748
F2125     F     0.3869   0.6408   0.0341
Ne2126     Ne     0.4234   0.6568   0.0504
Na2127     Na     0.3981   0.6318   0.0748
Be2128     Be     0.5285   0.6726   0.998
Er2129     Er     0.5383   0.6812   0.9569
Er2130     Er     0.5688   0.7117   0.9569
Ti2131     Ti     0.5285   0.7215   0.9454
Be2132     Be     0.5774   0.7215   0.998
B2133     B     0.5388   0.7112   0.087
B2134     B     0.587   0.7112   0.0388
Be2135     Be     0.5285   0.752   0.0774
Er2136     Er     0.5383   0.7931   0.0688
Er2137     Er     0.5688   0.7931   0.0383
Ti2138     Ti     0.5285   0.8046   0.0285
Be2139     Be     0.5774   0.752   0.0285
B2140     B     0.5388   0.663   0.0388
Be2141     Be     0.498   0.6726   0.0285
Er2142     Er     0.4569   0.7117   0.0688
Er2143     Er     0.4569   0.6812   0.0383
Ti2144     Ti     0.4454   0.7215   0.0285
Be2145     Be     0.498   0.7215   0.0774
F2146     F     0.5341   0.8631   0.1092
Ne2147     Ne     0.5504   0.8266   0.0932
Na2148     Na     0.5748   0.8519   0.1182
F2149     F     0.7159   0.6408   0.3631
Ne2150     Ne     0.6996   0.6568   0.3266
Na2151     Na     0.6752   0.6318   0.3519
F2152     F     0.8631   0.6408   0.2159
Ne2153     Ne     0.8266   0.6568   0.1996
Na2154     Na     0.8519   0.6318   0.1753
F2155     F     0.6408   0.7159   0.3631
Ne2156     Ne     0.6568   0.6996   0.3266
Na2157     Na     0.6318   0.6752   0.3519
F2158     F     0.7159   0.8631   0.1408
Ne2159     Ne     0.6996   0.8266   0.1569
Na2160     Na     0.6752   0.8519   0.1318
F2161     F     0.8631   0.7159   0.1408
Ne2162     Ne     0.8266   0.6996   0.1568
Na2163     Na     0.8519   0.6752   0.1318
B2164     B     0.663   0.7112   0.2112
Be2165     Be     0.6726   0.7215   0.252
Er2166     Er     0.6812   0.7117   0.2931
Er2167     Er     0.7117   0.6812   0.2931
Ti2168     Ti     0.7215   0.7215   0.3046
Be2169     Be     0.7215   0.6726   0.252
Be2170     Be     0.6726   0.752   0.2215
Er2171     Er     0.6812   0.7931   0.2117
Er2172     Er     0.7117   0.7931   0.1812
Ti2173     Ti     0.7215   0.8046   0.2215
Be2174     Be     0.7215   0.752   0.1726
B2175     B     0.7112   0.7112   0.163
B2176     B     0.7112   0.663   0.2112
Be2177     Be     0.752   0.7215   0.1726
Er2178     Er     0.7931   0.6812   0.2117
Er2179     Er     0.7931   0.7117   0.1812
Ti2180     Ti     0.8046   0.7215   0.2215
Be2181     Be     0.752   0.6726   0.2215
F2182     F     0.6408   0.8631   0.2159
Ne2183     Ne     0.6568   0.8266   0.1996
Na2184     Na     0.6318   0.8519   0.1752
F2185     F     0.6408   0.5341   0.8869
Ne2186     Ne     0.6568   0.5504   0.9234
Na2187     Na     0.6318   0.5748   0.8981
F2188     F     0.6408   0.3869   0.0341
Ne2189     Ne     0.6568   0.4234   0.0504
Na2190     Na     0.6318   0.3981   0.0748
F2191     F     0.8631   0.6092   0.0341
Ne2192     Ne     0.8266   0.5932   0.0504
Na2193     Na     0.8519   0.6182   0.0748
F2194     F     0.7159   0.6092   0.8869
Ne2195     Ne     0.6996   0.5932   0.9234
Na2196     Na     0.6752   0.6182   0.8981
F2197     F     0.8631   0.5341   0.1092
Ne2198     Ne     0.8266   0.5504   0.0932
Na2199     Na     0.8519   0.5748   0.1182
B2200     B     0.7112   0.587   0.0388
B2201     B     0.7112   0.5388   0.087
Be2202     Be     0.752   0.5285   0.0774
Er2203     Er     0.7931   0.5383   0.0688
Er2204     Er     0.7931   0.5688   0.0383
Ti2205     Ti     0.8046   0.5285   0.0285
Be2206     Be     0.752   0.5774   0.0285
Be2207     Be     0.7215   0.5774   0.998
Er2208     Er     0.6812   0.5383   0.9569
Er2209     Er     0.7117   0.5688   0.9569
Ti2210     Ti     0.7215   0.5285   0.9454
Be2211     Be     0.6726   0.5285   0.998
B2212     B     0.663   0.5388   0.0388
Be2213     Be     0.7215   0.498   0.0774
Er2214     Er     0.7117   0.4569   0.0688
Er2215     Er     0.6812   0.4569   0.0383
Ti2216     Ti     0.7215   0.4454   0.0285
Be2217     Be     0.6726   0.498   0.0285
F2218     F     0.7159   0.3869   0.1092
Ne2219     Ne     0.6996   0.4234   0.0932
Na2220     Na     0.6752   0.3981   0.1182
V2221     V     0.6818   0.6514   0.1819
V2222     V     0.6514   0.6819   0.1818
V2223     V     0.6818   0.6818   0.1514
Li2224     Li     0.6353   0.5842   0.1658
Li2225     Li     0.6658   0.5842   0.1353
Li2226     Li     0.6658   0.6147   0.1658
Li2227     Li     0.5842   0.6147   0.0842
Li2228     Li     0.5842   0.5842   0.1147
Li2229     Li     0.6147   0.5842   0.0842
V2230     V     0.5682   0.5682   0.1514
V2231     V     0.5682   0.5986   0.1819
V2232     V     0.5986   0.5682   0.1819
Li2233     Li     0.6147   0.6658   0.1658
Li2234     Li     0.5842   0.6353   0.1658
Li2235     Li     0.5842   0.6658   0.1353
V2236     V     0.6818   0.5682   0.0986
V2237     V     0.6819   0.5986   0.0682
V2238     V     0.6514   0.5681   0.0682
V2239     V     0.5682   0.6819   0.0986
V2240     V     0.5682   0.6514   0.0682
V2241     V     0.5986   0.6818   0.0681
Li2242     Li     0.6658   0.6658   0.1147
Li2243     Li     0.6353   0.6658   0.0842
Li2244     Li     0.6658   0.6353   0.0842
Ce2245     Ce     0.75   0.1395   0.8895
S2246     S     0.7633   0.1779   0.9039
S2247     S     0.7367   0.1539   0.9279
Ce2248     Ce     0.1395   0.8895   0.75
S2249     S     0.1779   0.9039   0.7633
S2250     S     0.1539   0.9279   0.7367
Ce2251     Ce     0.8895   0.75   0.1395
S2252     S     0.9039   0.7633   0.1779
S2253     S     0.9279   0.7367   0.1539
Ce2254     Ce     0.8895   0.1395   0.75
S2255     S     0.9039   0.1779   0.7633
S2256     S     0.9279   0.1539   0.7367
Ce2257     Ce     0.1395   0.75   0.8895
S2258     S     0.1779   0.7633   0.9039
S2259     S     0.1539   0.7367   0.9279
Ce2260     Ce     0.75   0.8895   0.1395
S2261     S     0.7633   0.9039   0.1779
S2262     S     0.7367   0.9279   0.1539
H2263     H     0.114   0.8598   0.8598
H2264     H     0.114   0.8902   0.8902
He2265     He     0.1514   0.875   0.875
H2266     H     0.8598   0.114   0.8598
H2267     H     0.8902   0.114   0.8902
He2268     He     0.875   0.1514   0.875
H2269     H     0.8598   0.8598   0.114
H2270     H     0.8902   0.8902   0.114
He2271     He     0.875   0.875   0.1514
H2272     H     0.636   0.8902   0.8598
H2273     H     0.636   0.8598   0.8902
He2274     He     0.5986   0.875   0.875
H2275     H     0.8902   0.8598   0.636
H2276     H     0.8598   0.8902   0.636
He2277     He     0.875   0.875   0.5986
H2278     H     0.8598   0.636   0.8902
H2279     H     0.8902   0.636   0.8598
He2280     He     0.875   0.5986   0.875
F2281     F     0.1131   0.8908   0.7841
Ne2282     Ne     0.0766   0.9068   0.8004
Na2283     Na     0.1019   0.8818   0.8248
F2284     F     0.9659   0.1131   0.8592
Ne2285     Ne     0.9496   0.0766   0.8432
Na2286     Na     0.9252   0.1019   0.8682
F2287     F     0.9659   0.8908   0.6369
Ne2288     Ne     0.9496   0.9068   0.6734
Na2289     Na     0.9252   0.8818   0.6481
F2290     F     0.8908   0.9659   0.6369
Ne2291     Ne     0.9068   0.9496   0.6734
Na2292     Na     0.8818   0.9252   0.6481
F2293     F     0.8908   0.1131   0.7841
Ne2294     Ne     0.9068   0.0766   0.8004
Na2295     Na     0.8818   0.1019   0.8248
B2296     B     0.9612   0.913   0.7888
B2297     B     0.913   0.9612   0.7888
Be2298     Be     0.9715   0.9226   0.748
Er2299     Er     0.9312   0.9617   0.7069
Er2300     Er     0.9617   0.9312   0.7069
Ti2301     Ti     0.9715   0.9715   0.6954
Be2302     Be     0.9226   0.9715   0.748
Be2303     Be     0.002   0.9715   0.8274
Er2304     Er     0.0431   0.9617   0.8188
Er2305     Er     0.0431   0.9312   0.7883
Ti2306     Ti     0.0546   0.9715   0.7785
Be2307     Be     0.002   0.9226   0.7785
B2308     B     0.9612   0.9612   0.837
Be2309     Be     0.9226   0.002   0.7785
Er2310     Er     0.9617   0.0431   0.8188
Er2311     Er     0.9312   0.0431   0.7883
Ti2312     Ti     0.9715   0.0546   0.7785
Be2313     Be     0.9715   0.002   0.8274
F2314     F     0.1131   0.9659   0.8592
Ne2315     Ne     0.0766   0.9496   0.8432
Na2316     Na     0.1019   0.9252   0.8682
F2317     F     0.1131   0.8592   0.9659
Ne2318     Ne     0.0766   0.8432   0.9496
Na2319     Na     0.1019   0.8682   0.9252
F2320     F     0.8908   0.7841   0.1131
Ne2321     Ne     0.9068   0.8004   0.0766
Na2322     Na     0.8818   0.8248   0.1019
F2323     F     0.8908   0.6369   0.9659
Ne2324     Ne     0.9068   0.6734   0.9496
Na2325     Na     0.8818   0.6481   0.9252
F2326     F     0.9659   0.6369   0.8908
Ne2327     Ne     0.9496   0.6734   0.9068
Na2328     Na     0.9252   0.6481   0.8818
F2329     F     0.1131   0.7841   0.8908
Ne2330     Ne     0.0766   0.8004   0.9068
Na2331     Na     0.1019   0.8248   0.8818
B2332     B     0.9612   0.837   0.9612
Be2333     Be     0.002   0.7785   0.9226
Er2334     Er     0.0431   0.8188   0.9617
Er2335     Er     0.0431   0.7883   0.9312
Ti2336     Ti     0.0546   0.7785   0.9715
Be2337     Be     0.002   0.8274   0.9715
Be2338     Be     0.9715   0.8274   0.002
Er2339     Er     0.9617   0.8188   0.0431
Er2340     Er     0.9312   0.7883   0.0431
Ti2341     Ti     0.9715   0.7785   0.0546
Be2342     Be     0.9226   0.7785   0.002
B2343     B     0.913   0.7888   0.9612
B2344     B     0.9612   0.7888   0.913
Be2345     Be     0.9226   0.748   0.9715
Er2346     Er     0.9617   0.7069   0.9312
Er2347     Er     0.9312   0.7069   0.9617
Ti2348     Ti     0.9715   0.6954   0.9715
Be2349     Be     0.9715   0.748   0.9226
F2350     F     0.9659   0.8592   0.1131
Ne2351     Ne     0.9496   0.8432   0.0766
Na2352     Na     0.9252   0.8682   0.1019
F2353     F     0.7841   0.1131   0.8908
Ne2354     Ne     0.8004   0.0766   0.9068
Na2355     Na     0.8248   0.1019   0.8818
F2356     F     0.8592   0.9659   0.1131
Ne2357     Ne     0.8432   0.9496   0.0766
Na2358     Na     0.8682   0.9252   0.1019
F2359     F     0.6369   0.8908   0.9659
Ne2360     Ne     0.6734   0.9068   0.9496
Na2361     Na     0.6481   0.8818   0.9252
F2362     F     0.6369   0.9659   0.8908
Ne2363     Ne     0.6734   0.9496   0.9068
Na2364     Na     0.6481   0.9252   0.8818
F2365     F     0.7841   0.8908   0.1131
Ne2366     Ne     0.8004   0.9068   0.0766
Na2367     Na     0.8248   0.8818   0.1019
B2368     B     0.837   0.9612   0.9612
Be2369     Be     0.7785   0.9226   0.002
Er2370     Er     0.8188   0.9617   0.0431
Er2371     Er     0.7883   0.9312   0.0431
Ti2372     Ti     0.7785   0.9715   0.0546
Be2373     Be     0.8274   0.9715   0.002
Be2374     Be     0.8274   0.002   0.9715
Er2375     Er     0.8188   0.0431   0.9617
Er2376     Er     0.7883   0.0431   0.9312
Ti2377     Ti     0.7785   0.0546   0.9715
Be2378     Be     0.7785   0.002   0.9226
B2379     B     0.7888   0.9612   0.913
B2380     B     0.7888   0.913   0.9612
Be2381     Be     0.748   0.9715   0.9226
Er2382     Er     0.7069   0.9312   0.9617
Er2383     Er     0.7069   0.9617   0.9312
Ti2384     Ti     0.6954   0.9715   0.9715
Be2385     Be     0.748   0.9226   0.9715
F2386     F     0.8592   0.1131   0.9659
Ne2387     Ne     0.8432   0.0766   0.9496
Na2388     Na     0.8682   0.1019   0.9252
F2389     F     0.7841   0.8592   0.6369
Ne2390     Ne     0.8004   0.8432   0.6734
Na2391     Na     0.8248   0.8682   0.6481
F2392     F     0.8592   0.6369   0.7841
Ne2393     Ne     0.8432   0.6734   0.8004
Na2394     Na     0.8682   0.6481   0.8248
F2395     F     0.7841   0.6369   0.8592
Ne2396     Ne     0.8004   0.6734   0.8432
Na2397     Na     0.8248   0.6481   0.8682
F2398     F     0.6369   0.7841   0.8592
Ne2399     Ne     0.6734   0.8004   0.8432
Na2400     Na     0.6481   0.8248   0.8682
F2401     F     0.6369   0.8592   0.7841
Ne2402     Ne     0.6734   0.8432   0.8004
Na2403     Na     0.6481   0.8682   0.8248
B2404     B     0.7888   0.837   0.7888
Be2405     Be     0.8274   0.7785   0.748
Er2406     Er     0.8188   0.7883   0.7069
Er2407     Er     0.7883   0.8188   0.7069
Ti2408     Ti     0.7785   0.7785   0.6954
Be2409     Be     0.7785   0.8274   0.748
B2410     B     0.837   0.7888   0.7888
Be2411     Be     0.7785   0.748   0.8274
Er2412     Er     0.7883   0.7069   0.8188
Er2413     Er     0.8188   0.7069   0.7883
Ti2414     Ti     0.7785   0.6954   0.7785
Be2415     Be     0.8274   0.748   0.7785
B2416     B     0.7888   0.7888   0.837
Be2417     Be     0.748   0.8274   0.7785
Er2418     Er     0.7069   0.7883   0.8188
Er2419     Er     0.7069   0.8188   0.7883
Ti2420     Ti     0.6954   0.7785   0.7785
Be2421     Be     0.748   0.7785   0.8274
F2422     F     0.8592   0.7841   0.6369
Ne2423     Ne     0.8432   0.8004   0.6734
Na2424     Na     0.8682   0.8248   0.6481
V2425     V     0.8182   0.8182   0.8486
V2426     V     0.8182   0.8486   0.8182
V2427     V     0.8486   0.8181   0.8181
Li2428     Li     0.9158   0.9158   0.8853
Li2429     Li     0.8853   0.9158   0.9158
Li2430     Li     0.9158   0.8853   0.9158
V2431     V     0.9014   0.8182   0.9318
V2432     V     0.9318   0.8486   0.9318
V2433     V     0.9318   0.8181   0.9014
Li2434     Li     0.8342   0.8342   0.8853
Li2435     Li     0.8342   0.8647   0.9158
Li2436     Li     0.8647   0.8342   0.9158
Li2437     Li     0.9158   0.8647   0.8342
Li2438     Li     0.9158   0.8342   0.8647
Li2439     Li     0.8853   0.8342   0.8342
V2440     V     0.9014   0.9318   0.8182
V2441     V     0.9318   0.9318   0.8486
V2442     V     0.9318   0.9014   0.8182
V2443     V     0.8181   0.9014   0.9318
V2444     V     0.8182   0.9318   0.9014
V2445     V     0.8486   0.9318   0.9318
Li2446     Li     0.8342   0.9158   0.8647
Li2447     Li     0.8647   0.9158   0.8342
Li2448     Li     0.8342   0.8853   0.8342
loop_
_geom_bond_atom_site_label_1
_geom_bond_atom_site_label_2
_geom_bond_distance
_geom_bond_site_symmetry_2
_ccdc_geom_bond_type
Mg1     Mg2    10.0   .     S
Mg1     Al3    10.003   .     S
Mg1     S980    10.011   .     S
Mg2     Al3    10.003   .     S
Mg2     S974    10.011   .     S
Al3     He2070    10.012   .     S
Mg4     Mg5    10.0   .     S
Mg4     Al6    10.003   .     S
Mg4     S986    10.011   .     S
Mg5     Al6    10.003   .     S
Mg5     S983    10.011   .     S
Al6     He1278    10.012   .     S
Mg7     Al9    10.003   .     S
Mg7     Mg8    10.0   .     S
Mg7     S734    10.011   .     S
Mg8     Al9    10.003   .     S
Mg8     S1010    10.011   .     S
Al9     He1686    10.012   .     S
Mg10     Al12    10.003   .     S
Mg10     Mg11    10.0   .     S
Mg10     S2057    10.011   .     S
Mg11     Al12    10.003   .     S
Mg11     S1458    10.011   .     S
Al12     He2067    10.012   .     S
Mg13     Al15    10.003   .     S
Mg13     Mg14    10.0   .     S
Mg13     S2258    10.011   .     S
Mg14     Al15    10.003   .     S
Mg14     S768    10.011   .     S
Al15     He2265    10.012   .     S
Mg16     Al18    10.003   .     S
Mg16     Mg17    10.0   .     S
Mg16     S1068    10.011   .     S
Mg17     Al18    10.003   .     S
Mg17     S1476    10.011   .     S
Al18     He1278    10.012   .     S
Mg19     Al21    10.003   .     S
Mg19     Mg20    10.0   .     S
Mg19     S1863    10.011   .     S
Mg20     Al21    10.003   .     S
Mg20     S1071    10.011   .     S
Al21     He2070    10.012   .     S
Mg22     Al24    10.003   .     S
Mg22     Mg23    10.0   .     S
Mg22     S1865    10.011   .     S
Mg23     Al24    10.003   .     S
Mg23     S1473    10.011   .     S
Al24     He1674    10.012   .     S
Mg25     Al27    10.003   .     S
Mg25     Mg26    10.0   .     S
Mg25     S703    10.011   .     S
Mg26     Al27    10.003   .     S
Mg26     S1035    10.011   .     S
Al27     He2061    10.012   .     S
Mg28     Al30    10.003   .     S
Mg28     Mg29    10.0   .     S
Mg28     S725    10.011   .     S
Mg29     Al30    10.003   .     S
Mg29     S1004    10.011   .     S
Al30     He1284    10.012   .     S
Mg31     Mg32    10.0   .     S
Mg31     Al33    10.003   .     S
Mg31     S728    10.011   .     S
Mg32     Al33    10.003   .     S
Mg32     S1013    10.011   .     S
Al33     He2076    10.012   .     S
Mg34     Al36    10.003   .     S
Mg34     Mg35    10.0   .     S
Mg34     S1262    10.011   .     S
Mg35     Al36    10.003   .     S
Mg35     S1454    10.011   .     S
Al36     He1275    10.012   .     S
Mg37     Al39    10.003   .     S
Mg37     Mg38    10.0   .     S
Mg37     S1663    10.011   .     S
Mg38     Al39    10.003   .     S
Mg38     S1053    10.011   .     S
Al39     He1680    10.012   .     S
Mg40     Al42    10.003   .     S
Mg40     Mg41    10.0   .     S
Mg40     S2053    10.011   .     S
Mg41     Al42    10.003   .     S
Mg41     S1049    10.011   .     S
Al42     He2067    10.012   .     S
Mg43     Al45    10.003   .     S
Mg43     Mg44    10.0   .     S
Mg43     S1264    10.011   .     S
Mg44     Al45    10.003   .     S
Mg44     S1055    10.011   .     S
Al45     He1275    10.012   .     S
Mg46     Mg47    10.0   .     S
Mg46     Al48    10.003   .     S
Mg46     S716    10.011   .     S
Mg47     Al48    10.003   .     S
Mg47     S710    10.011   .     S
Al48     He786    10.012   .     S
Mg49     Mg50    10.0   .     S
Mg49     Al51    10.003   .     S
Mg49     S719    10.011   .     S
Mg50     Al51    10.003   .     S
Mg50     S707    10.011   .     S
Al51     He789    10.012   .     S
Mg52     Mg53    10.0   .     S
Mg52     Al54    10.003   .     S
Mg52     S722    10.011   .     S
Mg53     Al54    10.003   .     S
Mg53     S713    10.011   .     S
Al54     He777    10.012   .     S
Mg55     Al57    10.003   .     S
Mg55     Mg56    10.0   .     S
Mg55     S1260    10.011   .     S
Mg56     Al57    10.003   .     S
Mg56     S744    10.011   .     S
Al57     He1089    10.012   .     S
Mg58     Al60    10.003   .     S
Mg58     Mg59    10.0   .     S
Mg58     S1860    10.011   .     S
Mg59     Al60    10.003   .     S
Mg59     S774    10.011   .     S
Al60     He1881    10.012   .     S
Mg61     Al63    10.003   .     S
Mg61     Mg62    10.0   .     S
Mg61     S739    10.011   .     S
Mg62     Al63    10.003   .     S
Mg62     S1031    10.011   .     S
Al63     He789    10.012   .     S
Mg64     Mg65    10.0   .     S
Mg64     Al66    10.003   .     S
Mg64     S761    10.011   .     S
Mg65     Al66    10.003   .     S
Mg65     S743    10.011   .     S
Al66     He783    10.012   .     S
Mg67     Mg68    10.0   .     S
Mg67     Al69    10.003   .     S
Mg67     S754    10.011   .     S
Mg68     Al69    10.003   .     S
Mg68     S992    10.011   .     S
Al69     He783    10.012   .     S
Mg70     Al72    10.003   .     S
Mg70     Mg71    10.0   .     S
Mg70     S2250    10.011   .     S
Mg71     Al72    10.003   .     S
Mg71     S1464    10.011   .     S
Al72     He1683    10.012   .     S
Mg73     Al75    10.003   .     S
Mg73     Mg74    10.0   .     S
Mg73     S752    10.011   .     S
Mg74     Al75    10.003   .     S
Mg74     S764    10.011   .     S
Al75     He792    10.012   .     S
Mg76     Al78    10.003   .     S
Mg76     Mg77    10.0   .     S
Mg76     S1668    10.011   .     S
Mg77     Al78    10.003   .     S
Mg77     S1266    10.011   .     S
Al78     He2277    10.012   .     S
Mg79     Al81    10.003   .     S
Mg79     Mg80    10.0   .     S
Mg79     S2253    10.011   .     S
Mg80     Al81    10.003   .     S
Mg80     S1059    10.011   .     S
Al81     He2073    10.012   .     S
Mg82     Al84    10.003   .     S
Mg82     Mg83    10.0   .     S
Mg82     S2055    10.011   .     S
Mg83     Al84    10.003   .     S
Mg83     S1263    10.011   .     S
Al84     He2274    10.012   .     S
Mg85     Al87    10.003   .     S
Mg85     Mg86    10.0   .     S
Mg85     S773    10.011   .     S
Mg86     Al87    10.003   .     S
Mg86     S766    10.011   .     S
Al87     He792    10.012   .     S
Mg88     Al90    10.003   .     S
Mg88     Mg89    10.0   .     S
Mg88     S2058    10.011   .     S
Mg89     Al90    10.003   .     S
Mg89     S1665    10.011   .     S
Al90     He2280    10.012   .     S
Mg91     Al93    10.003   .     S
Mg91     Mg92    10.0   .     S
Mg91     S1022    10.011   .     S
Mg92     Al93    10.003   .     S
Mg92     S769    10.011   .     S
Al93     He780    10.012   .     S
Mg94     Mg95    10.0   .     S
Mg94     Al96    10.003   .     S
Mg94     S680    10.011   .     S
Mg95     Al96    10.003   .     S
Mg95     S1002    10.011   .     S
Al96     He2064    10.012   .     S
Mg97     Mg98    10.0   .     S
Mg97     Al99    10.003   .     S
Mg97     S695    10.011   .     S
Mg98     Al99    10.003   .     S
Mg98     S1017    10.011   .     S
Al99     He2073    10.012   .     S
Mg100     Mg101    10.0   .     S
Mg100     Al102    10.003   .     S
Mg100     S683    10.011   .     S
Mg101     Al102    10.003   .     S
Mg101     S999    10.011   .     S
Al102     He1281    10.012   .     S
Mg103     Mg104    10.0   .     S
Mg103     Al105    10.003   .     S
Mg103     S686    10.011   .     S
Mg104     Al105    10.003   .     S
Mg104     S978    10.011   .     S
Al105     He1683    10.012   .     S
Mg106     Mg107    10.0   .     S
Mg106     Al108    10.003   .     S
Mg106     S689    10.011   .     S
Mg107     Al108    10.003   .     S
Mg107     S996    10.011   .     S
Al108     He1677    10.012   .     S
Mg109     Mg110    10.0   .     S
Mg109     Al111    10.003   .     S
Mg109     S995    10.011   .     S
Mg110     Al111    10.003   .     S
Mg110     S717    10.011   .     S
Al111     He1494    10.012   .     S
Mg112     Al114    10.003   .     S
Mg112     Mg113    10.0   .     S
Mg112     S1043    10.011   .     S
Mg113     Al114    10.003   .     S
Mg113     S971    10.011   .     S
Al114     He2061    10.012   .     S
Mg115     Al117    10.003   .     S
Mg115     Mg116    10.0   .     S
Mg115     S1857    10.011   .     S
Mg116     Al117    10.003   .     S
Mg116     S749    10.011   .     S
Al117     He1671    10.012   .     S
Mg118     Al120    10.003   .     S
Mg118     Mg119    10.0   .     S
Mg118     S1046    10.011   .     S
Mg119     Al120    10.003   .     S
Mg119     S965    10.011   .     S
Al120     He1269    10.012   .     S
Mg121     Al123    10.003   .     S
Mg121     Mg122    10.0   .     S
Mg121     S1041    10.011   .     S
Mg122     Al123    10.003   .     S
Mg122     S1014    10.011   .     S
Al123     He1485    10.012   .     S
Mg124     Mg125    10.0   .     S
Mg124     Al126    10.003   .     S
Mg124     S1459    10.011   .     S
Mg125     Al126    10.003   .     S
Mg125     S972    10.011   .     S
Al126     He1491    10.012   .     S
Mg127     Al129    10.003   .     S
Mg127     Mg128    10.0   .     S
Mg127     S1259    10.011   .     S
Mg128     Al129    10.003   .     S
Mg128     S747    10.011   .     S
Al129     He1284    10.012   .     S
Mg130     Al132    10.003   .     S
Mg130     Mg131    10.0   .     S
Mg130     S1859    10.011   .     S
Mg131     Al132    10.003   .     S
Mg131     S963    10.011   .     S
Al132     He2076    10.012   .     S
Mg133     Al135    10.003   .     S
Mg133     Mg134    10.0   .     S
Mg133     S1469    10.011   .     S
Mg134     Al135    10.003   .     S
Mg134     S969    10.011   .     S
Al135     He1686    10.012   .     S
Mg136     Al138    10.003   .     S
Mg136     Mg137    10.0   .     S
Mg136     S1025    10.011   .     S
Mg137     Al138    10.003   .     S
Mg137     S738    10.011   .     S
Al138     He1077    10.012   .     S
Mg139     Al141    10.003   .     S
Mg139     Mg140    10.0   .     S
Mg139     S1029    10.011   .     S
Mg140     Al141    10.003   .     S
Mg140     S1011    10.011   .     S
Al141     He1077    10.012   .     S
Mg142     Al144    10.003   .     S
Mg142     Mg143    10.0   .     S
Mg142     S1034    10.011   .     S
Mg143     Al144    10.003   .     S
Mg143     S741    10.011   .     S
Al144     He1485    10.012   .     S
Mg145     Al147    10.003   .     S
Mg145     Mg146    10.0   .     S
Mg145     S1005    10.011   .     S
Mg146     Al147    10.003   .     S
Mg146     S1032    10.011   .     S
Al147     He1869    10.012   .     S
Mg148     Al150    10.003   .     S
Mg148     Mg149    10.0   .     S
Mg148     S1066    10.011   .     S
Mg149     Al150    10.003   .     S
Mg149     S1052    10.011   .     S
Al150     He1083    10.012   .     S
Mg151     Al153    10.003   .     S
Mg151     Mg152    10.0   .     S
Mg151     S2247    10.011   .     S
Mg152     Al153    10.003   .     S
Mg152     S1461    10.011   .     S
Al153     He1281    10.012   .     S
Mg154     Al156    10.003   .     S
Mg154     Mg155    10.0   .     S
Mg154     S2256    10.011   .     S
Mg155     Al156    10.003   .     S
Mg155     S1065    10.011   .     S
Al156     He1272    10.012   .     S
Mg157     Al159    10.003   .     S
Mg157     Mg158    10.0   .     S
Mg157     S1470    10.011   .     S
Mg158     Al159    10.003   .     S
Mg158     S1023    10.011   .     S
Al159     He1494    10.012   .     S
Mg160     Al162    10.003   .     S
Mg160     Mg161    10.0   .     S
Mg160     S1044    10.011   .     S
Mg161     Al162    10.003   .     S
Mg161     S993    10.011   .     S
Al162     He1074    10.012   .     S
Mg163     Al165    10.003   .     S
Mg163     Mg164    10.0   .     S
Mg163     S990    10.011   .     S
Mg164     Al165    10.003   .     S
Mg164     S984    10.011   .     S
Al165     He1488    10.012   .     S
Mg166     Al168    10.003   .     S
Mg166     Mg167    10.0   .     S
Mg166     S1866    10.011   .     S
Mg167     Al168    10.003   .     S
Mg167     S1455    10.011   .     S
Al168     He1884    10.012   .     S
Mg169     Al171    10.003   .     S
Mg169     Mg170    10.0   .     S
Mg169     S981    10.011   .     S
Mg170     Al171    10.003   .     S
Mg170     S1020    10.011   .     S
Al171     He1878    10.012   .     S
Mg172     Al174    10.003   .     S
Mg172     Mg173    10.0   .     S
Mg172     S1472    10.011   .     S
Mg173     Al174    10.003   .     S
Mg173     S1050    10.011   .     S
Al174     He1482    10.012   .     S
Mg175     Al177    10.003   .     S
Mg175     Mg176    10.0   .     S
Mg175     S735    10.011   .     S
Mg176     Al177    10.003   .     S
Mg176     S732    10.011   .     S
Al177     He1488    10.012   .     S
Mg178     Al180    10.003   .     S
Mg178     Mg179    10.0   .     S
Mg178     S1070    10.011   .     S
Mg179     Al180    10.003   .     S
Mg179     S1062    10.011   .     S
Al180     He1086    10.012   .     S
Mg181     Al183    10.003   .     S
Mg181     Mg182    10.0   .     S
Mg181     S1475    10.011   .     S
Mg182     Al183    10.003   .     S
Mg182     S1456    10.011   .     S
Al183     He1491    10.012   .     S
Mg184     Al186    10.003   .     S
Mg184     Mg185    10.0   .     S
Mg184     S987    10.011   .     S
Mg185     Al186    10.003   .     S
Mg185     S975    10.011   .     S
Al186     He1080    10.012   .     S
Mg187     Al189    10.003   .     S
Mg187     Mg188    10.0   .     S
Mg187     S1862    10.011   .     S
Mg188     Al189    10.003   .     S
Mg188     S1056    10.011   .     S
Al189     He1875    10.012   .     S
Mg190     Mg191    10.0   .     S
Mg190     Al192    10.003   .     S
Mg190     S677    10.011   .     S
Mg191     Al192    10.003   .     S
Mg191     S1026    10.011   .     S
Al192     He1671    10.012   .     S
Mg193     Mg194    10.0   .     S
Mg193     Al195    10.003   .     S
Mg193     S1019    10.011   .     S
Mg194     Al195    10.003   .     S
Mg194     S989    10.011   .     S
Al195     He1674    10.012   .     S
Mg196     Mg197    10.0   .     S
Mg196     Al198    10.003   .     S
Mg196     S1462    10.011   .     S
Mg197     Al198    10.003   .     S
Mg197     S966    10.011   .     S
Al198     He1884    10.012   .     S
Mg199     Al201    10.003   .     S
Mg199     Mg200    10.0   .     S
Mg199     S1028    10.011   .     S
Mg200     Al201    10.003   .     S
Mg200     S675    10.011   .     S
Al201     He777    10.012   .     S
Mg202     Al204    10.003   .     S
Mg202     Mg203    10.0   .     S
Mg202     S1040    10.011   .     S
Mg203     Al204    10.003   .     S
Mg203     S737    10.011   .     S
Al204     He786    10.012   .     S
Mg205     Al207    10.003   .     S
Mg205     Mg206    10.0   .     S
Mg205     S673    10.011   .     S
Mg206     Al207    10.003   .     S
Mg206     S1037    10.011   .     S
Al207     He1869    10.012   .     S
Mg208     Mg209    10.0   .     S
Mg208     Al210    10.003   .     S
Mg208     S998    10.011   .     S
Mg209     Al210    10.003   .     S
Mg209     S708    10.011   .     S
Al210     He1479    10.012   .     S
Mg211     Mg212    10.0   .     S
Mg211     Al213    10.003   .     S
Mg211     S977    10.011   .     S
Mg212     Al213    10.003   .     S
Mg212     S714    10.011   .     S
Al213     He1872    10.012   .     S
Mg214     Mg215    10.0   .     S
Mg214     Al216    10.003   .     S
Mg214     S1001    10.011   .     S
Mg215     Al216    10.003   .     S
Mg215     S720    10.011   .     S
Al216     He1881    10.012   .     S
Mg217     Al219    10.003   .     S
Mg217     Mg218    10.0   .     S
Mg217     S758    10.011   .     S
Mg218     Al219    10.003   .     S
Mg218     S698    10.011   .     S
Al219     He780    10.012   .     S
Mg220     Mg221    10.0   .     S
Mg220     Al222    10.003   .     S
Mg220     S1016    10.011   .     S
Mg221     Al222    10.003   .     S
Mg221     S711    10.011   .     S
Al222     He1074    10.012   .     S
Mg223     Mg224    10.0   .     S
Mg223     Al225    10.003   .     S
Mg223     S1007    10.011   .     S
Mg224     Al225    10.003   .     S
Mg224     S723    10.011   .     S
Al225     He1089    10.012   .     S
Mg226     Al228    10.003   .     S
Mg226     Mg227    10.0   .     S
Mg226     S701    10.011   .     S
Mg227     Al228    10.003   .     S
Mg227     S962    10.011   .     S
Al228     He1482    10.012   .     S
Mg229     Mg230    10.0   .     S
Mg229     Al231    10.003   .     S
Mg229     S1064    10.011   .     S
Mg230     Al231    10.003   .     S
Mg230     S968    10.011   .     S
Al231     He1083    10.012   .     S
Mg232     Al234    10.003   .     S
Mg232     Mg233    10.0   .     S
Mg232     S2255    10.011   .     S
Mg233     Al234    10.003   .     S
Mg233     S771    10.011   .     S
Al234     He2268    10.012   .     S
Mg235     Mg236    10.0   .     S
Mg235     Al237    10.003   .     S
Mg235     S730    10.011   .     S
Mg236     Al237    10.003   .     S
Mg236     S1038    10.011   .     S
Al237     He1269    10.012   .     S
Mg238     Mg239    10.0   .     S
Mg238     Al240    10.003   .     S
Mg238     S746    10.011   .     S
Mg239     Al240    10.003   .     S
Mg239     S1466    10.011   .     S
Al240     He1875    10.012   .     S
Mg241     Mg242    10.0   .     S
Mg241     Al243    10.003   .     S
Mg241     S1057    10.011   .     S
Mg242     Al243    10.003   .     S
Mg242     S750    10.011   .     S
Al243     He1086    10.012   .     S
Mg244     Al246    10.003   .     S
Mg244     Mg245    10.0   .     S
Mg244     S2261    10.011   .     S
Mg245     Al246    10.003   .     S
Mg245     S762    10.011   .     S
Al246     He2271    10.012   .     S
Mg247     Mg248    10.0   .     S
Mg247     Al249    10.003   .     S
Mg247     S684    10.011   .     S
Mg248     Al249    10.003   .     S
Mg248     S681    10.011   .     S
Al249     He2274    10.012   .     S
Mg250     Mg251    10.0   .     S
Mg250     Al252    10.003   .     S
Mg250     S690    10.011   .     S
Mg251     Al252    10.003   .     S
Mg251     S696    10.011   .     S
Al252     He2280    10.012   .     S
Mg253     Mg254    10.0   .     S
Mg253     Al255    10.003   .     S
Mg253     S693    10.011   .     S
Mg254     Al255    10.003   .     S
Mg254     S687    10.011   .     S
Al255     He2277    10.012   .     S
Mg256     Mg257    10.0   .     S
Mg256     Al258    10.003   .     S
Mg256     S692    10.011   .     S
Mg257     Al258    10.003   .     S
Mg257     S1008    10.011   .     S
Al258     He1272    10.012   .     S
Mg259     Al261    10.003   .     S
Mg259     Mg260    10.0   .     S
Mg259     S1047    10.011   .     S
Mg260     Al261    10.003   .     S
Mg260     S699    10.011   .     S
Al261     He1479    10.012   .     S
Mg262     Al264    10.003   .     S
Mg262     Mg263    10.0   .     S
Mg262     S2249    10.011   .     S
Mg263     Al264    10.003   .     S
Mg263     S759    10.011   .     S
Al264     He2265    10.012   .     S
Mg265     Al267    10.003   .     S
Mg265     Mg266    10.0   .     S
Mg265     S1856    10.011   .     S
Mg266     Al267    10.003   .     S
Mg266     S753    10.011   .     S
Al267     He1872    10.012   .     S
Mg268     Al270    10.003   .     S
Mg268     Mg269    10.0   .     S
Mg268     S2246    10.011   .     S
Mg269     Al270    10.003   .     S
Mg269     S756    10.011   .     S
Al270     He2268    10.012   .     S
Mg271     Al273    10.003   .     S
Mg271     Mg272    10.0   .     S
Mg271     S2252    10.011   .     S
Mg272     Al273    10.003   .     S
Mg272     S765    10.011   .     S
Al273     He2271    10.012   .     S
Mg274     Al276    10.003   .     S
Mg274     Mg275    10.0   .     S
Mg274     S1667    10.011   .     S
Mg275     Al276    10.003   .     S
Mg275     S1061    10.011   .     S
Al276     He1680    10.012   .     S
Mg277     Al279    10.003   .     S
Mg277     Mg278    10.0   .     S
Mg277     S705    10.011   .     S
Mg278     Al279    10.003   .     S
Mg278     S726    10.011   .     S
Al279     He1080    10.012   .     S
Mg280     Al282    10.003   .     S
Mg280     Mg281    10.0   .     S
Mg280     S678    10.011   .     S
Mg281     Al282    10.003   .     S
Mg281     S729    10.011   .     S
Al282     He1878    10.012   .     S
Mg283     Al285    10.003   .     S
Mg283     Mg284    10.0   .     S
Mg283     S2259    10.011   .     S
Mg284     Al285    10.003   .     S
Mg284     S702    10.011   .     S
Al285     He1677    10.012   .     S
Mg286     Al288    10.003   .     S
Mg286     Mg287    10.0   .     S
Mg286     S2262    10.011   .     S
Mg287     Al288    10.003   .     S
Mg287     S1467    10.011   .     S
Al288     He2064    10.012   .     S
N289     O291    10.004   .     S
N289     N290    10.004   .     S
N289     S707    10.009   1_556     S
N290     O291    10.004   .     S
N290     S999    10.009   .     S
O291     Ti1592    10.009   .     S
N292     O294    10.004   .     S
N292     N293    10.004   .     S
N292     S713    10.009   1_565     S
N293     O294    10.004   .     S
N293     S978    10.009   .     S
O294     Ti1941    10.009   .     S
N295     O297    10.004   .     S
N295     N296    10.004   .     S
N295     S716    10.009   1_556     S
N296     O297    10.004   .     S
N296     S996    10.009   .     S
O297     Ti1551    10.009   .     S
N298     O300    10.004   .     S
N298     N299    10.004   .     S
N298     S719    10.009   1_565     S
N299     O300    10.004   .     S
N299     S1002    10.009   .     S
O300     Ti1910    10.009   .     S
N301     O303    10.004   .     S
N301     N302    10.004   .     S
N301     S1857    10.009   .     S
N302     O303    10.004   .     S
N302     S752    10.009   .     S
O303     Ti2012    10.009   .     S
N304     O306    10.004   .     S
N304     N305    10.004   .     S
N304     S722    10.009   1_655     S
N305     O306    10.004   .     S
N305     S1008    10.009   .     S
O306     Ti1223    10.009   .     S
N307     O309    10.004   .     S
N307     N308    10.004   .     S
N307     S710    10.009   1_655     S
N308     O309    10.004   .     S
N308     S1017    10.009   .     S
O309     Ti1121    10.009   .     S
N310     O312    10.004   .     S
N310     N311    10.004   .     S
N310     S1469    10.009   .     S
N311     O312    10.004   .     S
N311     S1022    10.009   .     S
O312     Ti1634    10.009   .     S
N313     O315    10.004   .     S
N313     N314    10.004   .     S
N313     S1043    10.009   .     S
N314     O315    10.004   .     S
N314     S992    10.009   .     S
O315     Ti1193    10.009   .     S
N316     O318    10.004   .     S
N316     N317    10.004   .     S
N316     S1038    10.009   .     S
N317     O318    10.004   .     S
N317     S675    10.009   .     S
O318     Ti1946    10.009   .     S
N319     O321    10.004   .     S
N319     N320    10.004   .     S
N319     S1031    10.009   .     S
N320     O321    10.004   .     S
N320     S1004    10.009   .     S
O321     Ti1916    10.009   .     S
N322     O324    10.004   .     S
N322     N323    10.004   .     S
N322     S1040    10.009   .     S
N323     O324    10.004   .     S
N323     S1013    10.009   .     S
O324     Ti1562    10.009   .     S
N325     O327    10.004   .     S
N325     N326    10.004   .     S
N325     S754    10.009   1_556     S
N326     O327    10.004   .     S
N326     S2247    10.009   .     S
O327     Ti2377    10.009   .     S
N328     O330    10.004   .     S
N328     N329    10.004   .     S
N328     S764    10.009   1_655     S
N329     O330    10.004   .     S
N329     S2253    10.009   .     S
O330     Ti2341    10.009   .     S
N331     O333    10.004   .     S
N331     N332    10.004   .     S
N331     S1029    10.009   .     S
N332     O333    10.004   .     S
N332     S673    10.009   .     S
O333     Ti848    10.009   .     S
N334     O336    10.004   .     S
N334     N335    10.004   .     S
N334     S1041    10.009   .     S
N335     O336    10.004   .     S
N335     S738    10.009   .     S
O336     Ti860    10.009   .     S
N337     O339    10.004   .     S
N337     N338    10.004   .     S
N337     S1032    10.009   .     S
N338     O339    10.004   .     S
N338     S741    10.009   .     S
O339     Ti854    10.009   .     S
N340     O342    10.004   .     S
N340     N341    10.004   .     S
N340     S975    10.009   .     S
N341     O342    10.004   .     S
N341     S981    10.009   .     S
O342     Ti2102    10.009   .     S
N343     O345    10.004   .     S
N343     N344    10.004   .     S
N343     S972    10.009   1_554     S
N344     O345    10.004   .     S
N344     S1044    10.009   .     S
O345     Ti2216    10.009   .     S
N346     O348    10.004   .     S
N346     N347    10.004   .     S
N346     S1066    10.009   .     S
N347     O348    10.004   .     S
N347     S1475    10.009   .     S
O348     Ti1411    10.009   .     S
N349     O351    10.004   .     S
N349     N350    10.004   .     S
N349     S984    10.009   .     S
N350     O351    10.004   .     S
N350     S987    10.009   .     S
O351     Ti1316    10.009   .     S
N352     O354    10.004   .     S
N352     N353    10.004   .     S
N352     S726    10.009   .     S
N353     O354    10.004   .     S
N353     S1005    10.009   .     S
O354     Ti1310    10.009   .     S
N355     O357    10.004   .     S
N355     N356    10.004   .     S
N355     S1025    10.009   .     S
N356     O357    10.004   .     S
N356     S678    10.009   .     S
O357     Ti1820    10.009   .     S
N358     O360    10.004   .     S
N358     N359    10.004   .     S
N358     S1014    10.009   .     S
N359     O360    10.004   .     S
N359     S729    10.009   .     S
O360     Ti2096    10.009   .     S
N361     O363    10.004   .     S
N361     N362    10.004   .     S
N361     S1866    10.009   .     S
N362     O363    10.004   .     S
N362     S1472    10.009   .     S
O363     Ti1706    10.009   .     S
N364     O366    10.004   .     S
N364     N365    10.004   .     S
N364     S1860    10.009   .     S
N365     O366    10.004   .     S
N365     S962    10.009   1_554     S
O366     Ti2144    10.009   .     S
N367     O369    10.004   .     S
N367     N368    10.004   .     S
N367     S1862    10.009   .     S
N368     O369    10.004   .     S
N368     S1070    10.009   .     S
O369     Ti2168    10.009   .     S
N370     O372    10.004   .     S
N370     N371    10.004   .     S
N370     S990    10.009   .     S
N371     O372    10.004   .     S
N371     S1020    10.009   .     S
O372     Ti1815    10.009   .     S
N373     O375    10.004   .     S
N373     N374    10.004   .     S
N373     S735    10.009   .     S
N374     O375    10.004   .     S
N374     S1011    10.009   .     S
O375     Ti1826    10.009   .     S
N376     O378    10.004   .     S
N376     N377    10.004   .     S
N376     S968    10.009   1_455     S
N377     O378    10.004   .     S
N377     S1470    10.009   .     S
O378     Ti1790    10.009   .     S
N379     O381    10.004   .     S
N379     N380    10.004   .     S
N379     S750    10.009   1_455     S
N380     O381    10.004   .     S
N380     S1856    10.009   .     S
O381     Ti1754    10.009   .     S
N382     O384    10.004   .     S
N382     N383    10.004   .     S
N382     S1034    10.009   .     S
N383     O384    10.004   .     S
N383     S705    10.009   .     S
O384     Ti2108    10.009   .     S
N385     O387    10.004   .     S
N385     N386    10.004   .     S
N385     S711    10.009   1_455     S
N386     O387    10.004   .     S
N386     S717    10.009   1_554     S
O387     Ti932    10.009   .     S
N388     O390    10.004   .     S
N388     N389    10.004   .     S
N388     S1047    10.009   .     S
N389     O390    10.004   .     S
N389     S966    10.009   1_545     S
O390     Ti1388    10.009   .     S
N391     O393    10.004   .     S
N391     N392    10.004   .     S
N391     S1037    10.009   .     S
N392     O393    10.004   .     S
N392     S732    10.009   .     S
O393     Ti1304    10.009   .     S
N394     O396    10.004   .     S
N394     N395    10.004   .     S
N394     S708    10.009   1_554     S
N395     O396    10.004   .     S
N395     S720    10.009   1_545     S
O396     Ti824    10.009   .     S
N397     O399    10.004   .     S
N397     N398    10.004   .     S
N397     S746    10.009   1_545     S
N398     O399    10.004   .     S
N398     S1260    10.009   .     S
O399     Ti1352    10.009   .     S
N400     O402    10.004   .     S
N400     N401    10.004   .     S
N400     S714    10.009   1_545     S
N401     O402    10.004   .     S
N401     S723    10.009   1_455     S
O402     Ti896    10.009   .     S
N403     O405    10.004   .     S
N403     N404    10.004   .     S
N403     S1026    10.009   .     S
N404     O405    10.004   .     S
N404     S737    10.009   .     S
O405     Ti1109    10.009   .     S
N406     O408    10.004   .     S
N406     N407    10.004   .     S
N406     S1028    10.009   .     S
N407     O408    10.004   .     S
N407     S1010    10.009   .     S
O408     Ti1217    10.009   .     S
N409     O411    10.004   .     S
N409     N410    10.004   .     S
N409     S758    10.009   1_565     S
N410     O411    10.004   .     S
N410     S2250    10.009   .     S
O411     Ti2306    10.009   .     S
N412     O414    10.004   .     S
N412     N413    10.004   .     S
N412     S2259    10.009   .     S
N413     O414    10.004   .     S
N413     S766    10.009   1_556     S
O414     Ti2336    10.009   .     S
N415     O417    10.004   .     S
N415     N416    10.004   .     S
N415     S1035    10.009   .     S
N416     O417    10.004   .     S
N416     S739    10.009   .     S
O417     Ti1598    10.009   .     S
N418     O420    10.004   .     S
N418     N419    10.004   .     S
N418     S2256    10.009   .     S
N419     O420    10.004   .     S
N419     S769    10.009   1_655     S
O420     Ti2312    10.009   .     S
N421     O423    10.004   .     S
N421     N422    10.004   .     S
N421     S2262    10.009   .     S
N422     O423    10.004   .     S
N422     S761    10.009   1_565     S
O423     Ti2372    10.009   .     S
N424     O426    10.004   .     S
N424     N425    10.004   .     S
N424     S1001    10.009   .     S
N425     O426    10.004   .     S
N425     S681    10.009   1_554     S
O426     Ti2138    10.009   .     S
N427     O429    10.004   .     S
N427     N428    10.004   .     S
N427     S1052    10.009   .     S
N428     O429    10.004   .     S
N428     S1665    10.009   .     S
O429     Ti1777    10.009   .     S
N430     O432    10.004   .     S
N430     N431    10.004   .     S
N430     S1668    10.009   .     S
N431     O432    10.004   .     S
N431     S1062    10.009   .     S
O432     Ti1741    10.009   .     S
N433     O435    10.004   .     S
N433     N434    10.004   .     S
N433     S983    10.009   .     S
N434     O435    10.004   .     S
N434     S989    10.009   .     S
O435     Ti1515    10.009   .     S
N436     O438    10.004   .     S
N436     N437    10.004   .     S
N436     S696    10.009   1_554     S
N437     O438    10.004   .     S
N437     S1016    10.009   .     S
O438     Ti2205    10.009   .     S
N439     O441    10.004   .     S
N439     N440    10.004   .     S
N439     S1046    10.009   .     S
N440     O441    10.004   .     S
N440     S698    10.009   .     S
O441     Ti1621    10.009   .     S
N442     O444    10.004   .     S
N442     N443    10.004   .     S
N442     S1865    10.009   .     S
N443     O444    10.004   .     S
N443     S1454    10.009   .     S
O444     Ti1988    10.009   .     S
N445     O447    10.004   .     S
N445     N446    10.004   .     S
N445     S1050    10.009   .     S
N446     O447    10.004   .     S
N446     S2055    10.009   .     S
O447     Ti2131    10.009   .     S
N448     O450    10.004   .     S
N448     N449    10.004   .     S
N448     S1056    10.009   .     S
N449     O450    10.004   .     S
N449     S1266    10.009   .     S
O450     Ti1346    10.009   .     S
N451     O453    10.004   .     S
N451     N452    10.004   .     S
N451     S2261    10.009   .     S
N452     O453    10.004   .     S
N452     S1466    10.009   .     S
O453     Ti2173    10.009   .     S
N454     O456    10.004   .     S
N454     N455    10.004   .     S
N454     S1019    10.009   .     S
N455     O456    10.004   .     S
N455     S980    10.009   .     S
O456     Ti1977    10.009   .     S
N457     O459    10.004   .     S
N457     N458    10.004   .     S
N457     S762    10.009   1_545     S
N458     O459    10.004   .     S
N458     S744    10.009   .     S
O459     Ti889    10.009   .     S
N460     O462    10.004   .     S
N460     N461    10.004   .     S
N460     S963    10.009   1_556     S
N461     O462    10.004   .     S
N461     S702    10.009   .     S
O462     Ti1556    10.009   .     S
N463     O465    10.004   .     S
N463     N464    10.004   .     S
N463     S728    10.009   .     S
N464     O465    10.004   .     S
N464     S677    10.009   .     S
O465     Ti2018    10.009   .     S
N466     O468    10.004   .     S
N466     N467    10.004   .     S
N466     S993    10.009   .     S
N467     O468    10.004   .     S
N467     S756    10.009   1_554     S
O468     Ti920    10.009   .     S
N469     O471    10.004   .     S
N469     N470    10.004   .     S
N469     S693    10.009   1_545     S
N470     O471    10.004   .     S
N470     S1007    10.009   .     S
O471     Ti1341    10.009   .     S
N472     O474    10.004   .     S
N472     N473    10.004   .     S
N472     S998    10.009   .     S
N473     O474    10.004   .     S
N473     S684    10.009   1_545     S
O474     Ti1377    10.009   .     S
N475     O477    10.004   .     S
N475     N476    10.004   .     S
N475     S1064    10.009   .     S
N476     O477    10.004   .     S
N476     S2255    10.009   .     S
O477     Ti1418    10.009   .     S
N478     O480    10.004   .     S
N478     N479    10.004   .     S
N478     S703    10.009   .     S
N479     O480    10.004   .     S
N479     S725    10.009   .     S
O480     Ti1181    10.009   .     S
N481     O483    10.004   .     S
N481     N482    10.004   .     S
N481     S765    10.009   1_455     S
N482     O483    10.004   .     S
N482     S753    10.009   .     S
O483     Ti884    10.009   .     S
N484     O486    10.004   .     S
N484     N485    10.004   .     S
N484     S734    10.009   .     S
N485     O486    10.004   .     S
N485     S730    10.009   .     S
O486     Ti1628    10.009   .     S
N487     O489    10.004   .     S
N487     N488    10.004   .     S
N487     S1476    10.009   .     S
N488     O489    10.004   .     S
N488     S1458    10.009   .     S
O489     Ti1526    10.009   .     S
N490     O492    10.004   .     S
N490     N491    10.004   .     S
N490     S971    10.009   1_556     S
N491     O492    10.004   .     S
N491     S1461    10.009   .     S
O492     Ti1586    10.009   .     S
N493     O495    10.004   .     S
N493     N494    10.004   .     S
N493     S1455    10.009   .     S
N494     O495    10.004   .     S
N494     S1263    10.009   .     S
O495     Ti1382    10.009   .     S
N496     O498    10.004   .     S
N496     N497    10.004   .     S
N496     S977    10.009   .     S
N497     O498    10.004   .     S
N497     S687    10.009   1_455     S
O498     Ti1748    10.009   .     S
N499     O501    10.004   .     S
N499     N500    10.004   .     S
N499     S2058    10.009   .     S
N500     O501    10.004   .     S
N500     S1456    10.009   .     S
O501     Ti2210    10.009   .     S
N502     O504    10.004   .     S
N502     N503    10.004   .     S
N502     S1667    10.009   .     S
N503     O504    10.004   .     S
N503     S1264    10.009   .     S
O504     Ti2408    10.009   .     S
N505     O507    10.004   .     S
N505     N506    10.004   .     S
N505     S1068    10.009   .     S
N506     O507    10.004   .     S
N506     S1053    10.009   .     S
O507     Ti1157    10.009   .     S
N508     O510    10.004   .     S
N508     N509    10.004   .     S
N508     S995    10.009   .     S
N509     O510    10.004   .     S
N509     S690    10.009   1_455     S
O510     Ti1784    10.009   .     S
N511     O513    10.004   .     S
N511     N512    10.004   .     S
N511     S1057    10.009   .     S
N512     O513    10.004   .     S
N512     S2252    10.009   .     S
O513     Ti2180    10.009   .     S
N514     O516    10.004   .     S
N514     N515    10.004   .     S
N514     S743    10.009   .     S
N515     O516    10.004   .     S
N515     S1259    10.009   .     S
O516     Ti1186    10.009   .     S
N517     O519    10.004   .     S
N517     N518    10.004   .     S
N517     S1049    10.009   .     S
N518     O519    10.004   .     S
N518     S1473    10.009   .     S
O519     Ti1520    10.009   .     S
N520     O522    10.004   .     S
N520     N521    10.004   .     S
N520     S1262    10.009   .     S
N521     O522    10.004   .     S
N521     S2053    10.009   .     S
O522     Ti2420    10.009   .     S
N523     O525    10.004   .     S
N523     N524    10.004   .     S
N523     S680    10.009   1_556     S
N524     O525    10.004   .     S
N524     S683    10.009   1_565     S
O525     Ti2384    10.009   .     S
N526     O528    10.004   .     S
N526     N527    10.004   .     S
N526     S1464    10.009   .     S
N527     O528    10.004   .     S
N527     S965    10.009   1_565     S
O528     Ti1952    10.009   .     S
N529     O531    10.004   .     S
N529     N530    10.004   .     S
N529     S701    10.009   .     S
N530     O531    10.004   .     S
N530     S2258    10.009   .     S
O531     Ti1711    10.009   .     S
N532     O534    10.004   .     S
N532     N533    10.004   .     S
N532     S699    10.009   .     S
N533     O534    10.004   .     S
N533     S759    10.009   1_545     S
O534     Ti811    10.009   .     S
N535     O537    10.004   .     S
N535     N536    10.004   .     S
N535     S773    10.009   .     S
N536     O537    10.004   .     S
N536     S1859    10.009   .     S
O537     Ti2024    10.009   .     S
N538     O540    10.004   .     S
N538     N539    10.004   .     S
N538     S1467    10.009   .     S
N539     O540    10.004   .     S
N539     S747    10.009   1_565     S
O540     Ti1904    10.009   .     S
N541     O543    10.004   .     S
N541     N542    10.004   .     S
N541     S774    10.009   .     S
N542     O543    10.004   .     S
N542     S768    10.009   1_554     S
O543     Ti817    10.009   .     S
N544     O546    10.004   .     S
N544     N545    10.004   .     S
N544     S974    10.009   .     S
N545     O546    10.004   .     S
N545     S986    10.009   .     S
O546     Ti1146    10.009   .     S
N547     O549    10.004   .     S
N547     N548    10.004   .     S
N547     S2249    10.009   .     S
N548     O549    10.004   .     S
N548     S1462    10.009   .     S
O549     Ti1718    10.009   .     S
N550     O552    10.004   .     S
N550     N551    10.004   .     S
N550     S1055    10.009   .     S
N551     O552    10.004   .     S
N551     S1863    10.009   .     S
O552     Ti1982    10.009   .     S
N553     O555    10.004   .     S
N553     N554    10.004   .     S
N553     S695    10.009   1_556     S
N554     O555    10.004   .     S
N554     S689    10.009   1_655     S
O555     Ti2348    10.009   .     S
N556     O558    10.004   .     S
N556     N557    10.004   .     S
N556     S1071    10.009   .     S
N557     O558    10.004   .     S
N557     S1061    10.009   .     S
O558     Ti1151    10.009   .     S
N559     O561    10.004   .     S
N559     N560    10.004   .     S
N559     S2057    10.009   .     S
N560     O561    10.004   .     S
N560     S1663    10.009   .     S
O561     Ti2414    10.009   .     S
N562     O564    10.004   .     S
N562     N563    10.004   .     S
N562     S749    10.009   1_655     S
N563     O564    10.004   .     S
N563     S1059    10.009   .     S
O564     Ti1115    10.009   .     S
N565     O567    10.004   .     S
N565     N566    10.004   .     S
N565     S686    10.009   1_655     S
N566     O567    10.004   .     S
N566     S692    10.009   1_565     S
O567     Ti2301    10.009   .     S
N568     O570    10.004   .     S
N568     N569    10.004   .     S
N568     S1023    10.009   .     S
N569     O570    10.004   .     S
N569     S771    10.009   1_455     S
O570     Ti925    10.009   .     S
N571     O573    10.004   .     S
N571     N572    10.004   .     S
N571     S2246    10.009   .     S
N572     O573    10.004   .     S
N572     S1459    10.009   .     S
O573     Ti1424    10.009   .     S
N574     O576    10.004   .     S
N574     N575    10.004   .     S
N574     S969    10.009   1_655     S
N575     O576    10.004   .     S
N575     S1065    10.009   .     S
O576     Ti1229    10.009   .     S
C577     C579    10.004   1_565     S
C577     C578    10.004   .     S
C577     Ti1952    10.007   .     S
C578     C579    10.004   1_565     S
C578     Ti1941    10.007   .     S
C579     C577    10.004   1_545     S
C579     C578    10.004   1_545     S
C579     Ti1946    10.007   .     S
C580     C582    10.004   .     S
C580     C581    10.004   .     S
C580     Ti860    10.007   .     S
C581     C582    10.004   .     S
C581     Ti854    10.007   .     S
C582     Ti848    10.007   .     S
C583     C585    10.004   .     S
C583     C584    10.004   .     S
C583     Ti1316    10.007   .     S
C584     C585    10.004   .     S
C584     Ti1310    10.007   .     S
C585     Ti1304    10.007   .     S
C586     C587    10.004   .     S
C586     C588    10.004   .     S
C586     Ti2102    10.007   .     S
C587     C588    10.004   .     S
C587     Ti2096    10.007   .     S
C588     Ti2108    10.007   .     S
C589     C591    10.004   1_565     S
C589     C590    10.004   1_556     S
C589     Ti2384    10.007   .     S
C590     C589    10.004   1_554     S
C590     C591    10.004   1_564     S
C590     Ti2372    10.007   .     S
C591     C589    10.004   1_545     S
C591     C590    10.004   1_546     S
C591     Ti2377    10.007   .     S
C592     C593    10.004   .     S
C592     C594    10.004   1_565     S
C592     Ti1904    10.007   .     S
C593     C594    10.004   1_565     S
C593     Ti1910    10.007   .     S
C594     C593    10.004   1_545     S
C594     C592    10.004   1_545     S
C594     Ti1916    10.007   .     S
C595     C597    10.004   1_654     S
C595     C596    10.004   1_554     S
C595     Ti2341    10.007   .     S
C596     C595    10.004   1_556     S
C596     C597    10.004   1_655     S
C596     Ti2348    10.007   .     S
C597     C595    10.004   1_456     S
C597     C596    10.004   1_455     S
C597     Ti2336    10.007   .     S
C598     C600    10.004   1_655     S
C598     C599    10.004   .     S
C598     Ti1115    10.007   .     S
C599     C600    10.004   1_655     S
C599     Ti1121    10.007   .     S
C600     C598    10.004   1_455     S
C600     C599    10.004   1_455     S
C600     Ti1109    10.007   .     S
C601     C603    10.004   1_465     S
C601     C602    10.004   1_455     S
C601     Ti2306    10.007   .     S
C602     C601    10.004   1_655     S
C602     C603    10.004   1_565     S
C602     Ti2301    10.007   .     S
C603     C601    10.004   1_645     S
C603     C602    10.004   1_545     S
C603     Ti2312    10.007   .     S
C604     C605    10.004   1_655     S
C604     C606    10.004   .     S
C604     Ti1223    10.007   .     S
C605     C604    10.004   1_455     S
C605     C606    10.004   1_455     S
C605     Ti1217    10.007   .     S
C606     C605    10.004   1_655     S
C606     Ti1229    10.007   .     S
C607     C609    10.004   1_554     S
C607     C608    10.004   1_554     S
C607     Ti1562    10.007   .     S
C608     C609    10.004   .     S
C608     C607    10.004   1_556     S
C608     Ti1551    10.007   .     S
C609     C607    10.004   1_556     S
C609     Ti1556    10.007   .     S
C610     C612    10.004   1_556     S
C610     C611    10.004   .     S
C610     Ti1586    10.007   .     S
C611     C612    10.004   1_556     S
C611     Ti1592    10.007   .     S
C612     C610    10.004   1_554     S
C612     C611    10.004   1_554     S
C612     Ti1598    10.007   .     S
C613     C614    10.004   1_545     S
C613     C615    10.004   1_554     S
C613     Ti824    10.007   .     S
C614     C613    10.004   1_565     S
C614     C615    10.004   1_564     S
C614     Ti817    10.007   .     S
C615     C613    10.004   1_556     S
C615     C614    10.004   1_546     S
C615     Ti811    10.007   .     S
C616     C617    10.004   1_455     S
C616     C618    10.004   1_545     S
C616     Ti896    10.007   .     S
C617     C616    10.004   1_655     S
C617     C618    10.004   1_645     S
C617     Ti889    10.007   .     S
C618     C616    10.004   1_565     S
C618     C617    10.004   1_465     S
C618     Ti884    10.007   .     S
C619     C621    10.004   1_654     S
C619     C620    10.004   1_655     S
C619     Ti920    10.007   .     S
C620     C619    10.004   1_455     S
C620     C621    10.004   1_554     S
C620     Ti932    10.007   .     S
C621     C619    10.004   1_456     S
C621     C620    10.004   1_556     S
C621     Ti925    10.007   .     S
C622     C623    10.004   .     S
C622     C624    10.004   .     S
C622     Ti1526    10.007   .     S
C623     C624    10.004   .     S
C623     Ti1520    10.007   .     S
C624     Ti1515    10.007   .     S
C625     C627    10.004   .     S
C625     C626    10.004   .     S
C625     Ti1146    10.007   .     S
C626     C627    10.004   .     S
C626     Ti1157    10.007   .     S
C627     Ti1151    10.007   .     S
C628     C629    10.004   .     S
C628     C630    10.004   .     S
C628     Ti1977    10.007   .     S
C629     C630    10.004   .     S
C629     Ti1988    10.007   .     S
C630     Ti1982    10.007   .     S
C631     C633    10.004   .     S
C631     C632    10.004   .     S
C631     Ti1815    10.007   .     S
C632     C633    10.004   .     S
C632     Ti1820    10.007   .     S
C633     Ti1826    10.007   .     S
C634     C636    10.004   .     S
C634     C635    10.004   .     S
C634     Ti1411    10.007   .     S
C635     C636    10.004   .     S
C635     Ti1418    10.007   .     S
C636     Ti1424    10.007   .     S
C637     C639    10.004   .     S
C637     C638    10.004   1_455     S
C637     Ti1784    10.007   .     S
C638     C637    10.004   1_655     S
C638     C639    10.004   1_655     S
C638     Ti1777    10.007   .     S
C639     C638    10.004   1_455     S
C639     Ti1790    10.007   .     S
C640     C641    10.004   1_655     S
C640     C642    10.004   1_655     S
C640     Ti1741    10.007   .     S
C641     C640    10.004   1_455     S
C641     C642    10.004   .     S
C641     Ti1754    10.007   .     S
C642     C640    10.004   1_455     S
C642     Ti1748    10.007   .     S
C643     C645    10.004   .     S
C643     C644    10.004   1_554     S
C643     Ti2138    10.007   .     S
C644     C643    10.004   1_556     S
C644     C645    10.004   1_556     S
C644     Ti2131    10.007   .     S
C645     C644    10.004   1_554     S
C645     Ti2144    10.007   .     S
C646     C648    10.004   .     S
C646     C647    10.004   1_545     S
C646     Ti1352    10.007   .     S
C647     C648    10.004   1_565     S
C647     C646    10.004   1_565     S
C647     Ti1346    10.007   .     S
C648     C647    10.004   1_545     S
C648     Ti1341    10.007   .     S
C649     C650    10.004   1_565     S
C649     C651    10.004   1_565     S
C649     Ti1382    10.007   .     S
C650     C649    10.004   1_545     S
C650     C651    10.004   .     S
C650     Ti1388    10.007   .     S
C651     C649    10.004   1_545     S
C651     Ti1377    10.007   .     S
C652     C654    10.004   1_556     S
C652     C653    10.004   1_556     S
C652     Ti2210    10.007   .     S
C653     C652    10.004   1_554     S
C653     C654    10.004   .     S
C653     Ti2216    10.007   .     S
C654     C652    10.004   1_554     S
C654     Ti2205    10.007   .     S
C655     C657    10.004   .     S
C655     C656    10.004   .     S
C655     Ti2168    10.007   .     S
C656     C657    10.004   .     S
C656     Ti2180    10.007   .     S
C657     Ti2173    10.007   .     S
C658     C660    10.004   .     S
C658     C659    10.004   .     S
C658     Ti1706    10.007   .     S
C659     C660    10.004   .     S
C659     Ti1711    10.007   .     S
C660     Ti1718    10.007   .     S
C661     C663    10.004   .     S
C661     C662    10.004   .     S
C661     Ti1634    10.007   .     S
C662     C663    10.004   .     S
C662     Ti1621    10.007   .     S
C663     Ti1628    10.007   .     S
C664     C665    10.004   .     S
C664     C666    10.004   .     S
C664     Ti2414    10.007   .     S
C665     C666    10.004   .     S
C665     Ti2408    10.007   .     S
C666     Ti2420    10.007   .     S
C667     C669    10.004   .     S
C667     C668    10.004   .     S
C667     Ti1181    10.007   .     S
C668     C669    10.004   .     S
C668     Ti1193    10.007   .     S
C669     Ti1186    10.007   .     S
C670     C672    10.004   .     S
C670     C671    10.004   .     S
C670     Ti2018    10.007   .     S
C671     C672    10.004   .     S
C671     Ti2012    10.007   .     S
C672     Ti2024    10.007   .     S
S673     Ce674    9.996   .     S
S673     S675    9.999   .     S
Ce674     S675    9.996   .     S
Ce674     F1927    10.0   .     S
Ce674     F832    10.0   .     S
Ce676     S677    9.996   .     S
Ce676     S678    9.996   .     S
Ce676     F1996    10.0   .     S
Ce676     F1804    10.0   .     S
S677     S678    9.999   .     S
Ce679     S681    9.996   1_554     S
Ce679     S680    9.996   .     S
Ce679     F2122    10.0   .     S
Ce679     F2359    10.0   1_554     S
S680     S681    9.999   1_554     S
S680     N523    10.009   1_554     S
S681     Ce679    9.996   1_556     S
S681     S680    9.999   1_556     S
S681     N425    10.009   1_556     S
Ce682     S684    9.996   1_545     S
Ce682     S683    9.996   .     S
Ce682     F1363    10.0   .     S
Ce682     F2362    10.0   1_545     S
S683     S684    9.999   1_545     S
S683     N524    10.009   1_545     S
S684     Ce682    9.996   1_565     S
S684     S683    9.999   1_565     S
S684     N473    10.009   1_565     S
Ce685     S687    9.996   1_455     S
Ce685     S686    9.996   .     S
Ce685     F1729    10.0   .     S
Ce685     F2287    10.0   1_455     S
S686     S687    9.999   1_455     S
S686     N565    10.009   1_455     S
S687     Ce685    9.996   1_655     S
S687     S686    9.999   1_655     S
S687     N497    10.009   1_655     S
Ce688     S690    9.996   1_455     S
Ce688     S689    9.996   .     S
Ce688     F1765    10.0   .     S
Ce688     F2326    10.0   1_455     S
S689     S690    9.999   1_455     S
S689     N554    10.009   1_455     S
S690     Ce688    9.996   1_655     S
S690     S689    9.999   1_655     S
S690     N509    10.009   1_655     S
Ce691     S693    9.996   1_545     S
Ce691     S692    9.996   .     S
Ce691     F1333    10.0   .     S
Ce691     F2290    10.0   1_545     S
S692     S693    9.999   1_545     S
S692     N566    10.009   1_545     S
S693     Ce691    9.996   1_565     S
S693     S692    9.999   1_565     S
S693     N469    10.009   1_565     S
Ce694     S696    9.996   1_554     S
Ce694     S695    9.996   .     S
Ce694     F2191    10.0   .     S
Ce694     F2323    10.0   1_554     S
S695     S696    9.999   1_554     S
S695     N553    10.009   1_554     S
S696     Ce694    9.996   1_556     S
S696     S695    9.999   1_556     S
S696     N436    10.009   1_556     S
Ce697     S698    9.996   .     S
Ce697     S699    9.996   .     S
Ce697     F1636    10.0   .     S
Ce697     F826    10.0   .     S
S698     S699    9.999   .     S
Ce700     S701    9.996   .     S
Ce700     S702    9.996   .     S
Ce700     F1720    10.0   .     S
Ce700     F1564    10.0   .     S
S701     S702    9.999   .     S
S703     S705    9.999   .     S
S703     Ce704    9.996   .     S
Ce704     S705    9.996   .     S
Ce704     F1195    10.0   .     S
Ce704     F2086    10.0   .     S
Ce706     S708    9.996   1_554     S
Ce706     S707    9.996   .     S
Ce706     F1579    10.0   1_554     S
Ce706     F802    10.0   .     S
S707     S708    9.999   1_554     S
S707     N289    10.009   1_554     S
S708     Ce706    9.996   1_556     S
S708     S707    9.999   1_556     S
S708     N394    10.009   1_556     S
Ce709     S711    9.996   1_455     S
Ce709     S710    9.996   .     S
Ce709     F1102    10.0   1_455     S
Ce709     F910    10.0   .     S
S710     S711    9.999   1_455     S
S710     N307    10.009   1_455     S
S711     Ce709    9.996   1_655     S
S711     S710    9.999   1_655     S
S711     N385    10.009   1_655     S
Ce712     S714    9.996   1_545     S
Ce712     S713    9.996   .     S
Ce712     F1954    10.0   1_545     S
Ce712     F871    10.0   .     S
S713     S714    9.999   1_545     S
S713     N292    10.009   1_545     S
S714     Ce712    9.996   1_565     S
S714     S713    9.999   1_565     S
S714     N400    10.009   1_565     S
Ce715     S717    9.996   1_554     S
Ce715     S716    9.996   .     S
Ce715     F1537    10.0   1_554     S
Ce715     F913    10.0   .     S
S716     S717    9.999   1_554     S
S716     N295    10.009   1_554     S
S717     Ce715    9.996   1_556     S
S717     S716    9.999   1_556     S
S717     N386    10.009   1_556     S
Ce718     S720    9.996   1_545     S
Ce718     S719    9.996   .     S
Ce718     F1897    10.0   1_545     S
Ce718     F805    10.0   .     S
S719     S720    9.999   1_545     S
S719     N298    10.009   1_545     S
S720     Ce718    9.996   1_565     S
S720     S719    9.999   1_565     S
S720     N395    10.009   1_565     S
Ce721     S723    9.996   1_455     S
Ce721     S722    9.996   .     S
Ce721     F1207    10.0   1_455     S
Ce721     F874    10.0   .     S
S722     S723    9.999   1_455     S
S722     N304    10.009   1_455     S
S723     Ce721    9.996   1_655     S
S723     S722    9.999   1_655     S
S723     N401    10.009   1_655     S
Ce724     S726    9.996   .     S
Ce724     S725    9.996   .     S
Ce724     F1162    10.0   .     S
Ce724     F1297    10.0   .     S
S725     S726    9.999   .     S
Ce727     S728    9.996   .     S
Ce727     S729    9.996   .     S
Ce727     F1993    10.0   .     S
Ce727     F2089    10.0   .     S
S728     S729    9.999   .     S
S730     Ce731    9.996   .     S
S730     S732    9.999   .     S
Ce731     S732    9.996   .     S
Ce731     F1615    10.0   .     S
Ce731     F1291    10.0   .     S
Ce733     S734    9.996   .     S
Ce733     S735    9.996   .     S
Ce733     F1603    10.0   .     S
Ce733     F1828    10.0   .     S
S734     S735    9.999   .     S
Ce736     S738    9.996   .     S
Ce736     S737    9.996   .     S
Ce736     F1090    10.0   .     S
Ce736     F835    10.0   .     S
S737     S738    9.999   .     S
S739     S741    9.999   .     S
S739     Ce740    9.996   .     S
Ce740     S741    9.996   .     S
Ce740     F1567    10.0   .     S
Ce740     F841    10.0   .     S
Ce742     S744    9.996   .     S
Ce742     S743    9.996   .     S
Ce742     F1171    10.0   .     S
Ce742     F865    10.0   .     S
S743     S744    9.999   .     S
Ce745     S747    9.996   .     S
Ce745     S746    9.996   1_545     S
Ce745     F1330    10.0   .     S
Ce745     F1888    10.0   1_545     S
S746     Ce745    9.996   1_565     S
S746     S747    9.999   1_565     S
S746     N397    10.009   1_565     S
S747     S746    9.999   1_545     S
S747     N539    10.009   1_545     S
Ce748     S750    9.996   1_455     S
Ce748     S749    9.996   .     S
Ce748     F1726    10.0   .     S
Ce748     F1123    10.0   1_455     S
S749     S750    9.999   1_455     S
S749     N562    10.009   1_455     S
S750     Ce748    9.996   1_655     S
S750     S749    9.999   1_655     S
S750     N379    10.009   1_655     S
Ce751     S752    9.996   .     S
Ce751     S753    9.996   .     S
Ce751     F2026    10.0   .     S
Ce751     F898    10.0   .     S
S752     S753    9.999   .     S
S754     Ce755    9.996   .     S
S754     S756    9.999   1_554     S
S754     N325    10.009   1_554     S
Ce755     S756    9.996   1_554     S
Ce755     F2386    10.0   1_554     S
Ce755     F901    10.0   .     S
S756     Ce755    9.996   1_556     S
S756     S754    9.999   1_556     S
S756     N467    10.009   1_556     S
Ce757     S759    9.996   1_545     S
Ce757     S758    9.996   .     S
Ce757     F2314    10.0   1_545     S
Ce757     F793    10.0   .     S
S758     S759    9.999   1_545     S
S758     N409    10.009   1_545     S
S759     Ce757    9.996   1_565     S
S759     S758    9.999   1_565     S
S759     N533    10.009   1_565     S
Ce760     S761    9.996   .     S
Ce760     S762    9.996   1_545     S
Ce760     F2356    10.0   1_545     S
Ce760     F877    10.0   .     S
S761     S762    9.999   1_545     S
S761     N422    10.009   1_545     S
S762     Ce760    9.996   1_565     S
S762     S761    9.999   1_565     S
S762     N457    10.009   1_565     S
Ce763     S765    9.996   1_455     S
Ce763     S764    9.996   .     S
Ce763     F2350    10.0   1_455     S
Ce763     F868    10.0   .     S
S764     S765    9.999   1_455     S
S764     N328    10.009   1_455     S
S765     Ce763    9.996   1_655     S
S765     S764    9.999   1_655     S
S765     N481    10.009   1_655     S
S766     Ce767    9.996   .     S
S766     S768    9.999   1_554     S
S766     N413    10.009   1_554     S
Ce767     S768    9.996   1_554     S
Ce767     F2317    10.0   1_554     S
Ce767     F796    10.0   .     S
S768     S766    9.999   1_556     S
S768     Ce767    9.996   1_556     S
S768     N542    10.009   1_556     S
S769     Ce770    9.996   .     S
S769     S771    9.999   1_455     S
S769     N419    10.009   1_455     S
Ce770     S771    9.996   1_455     S
Ce770     F2284    10.0   1_455     S
Ce770     F907    10.0   .     S
S771     S769    9.999   1_655     S
S771     Ce770    9.996   1_655     S
S771     N569    10.009   1_655     S
Ce772     S774    9.996   .     S
Ce772     S773    9.996   .     S
Ce772     F2005    10.0   .     S
Ce772     F799    10.0   .     S
S773     S774    9.999   .     S
H775     He777    9.998   .     S
H775     H776    9.994   .     S
H775     Na831    10.001   .     S
H775     Na876    10.001   .     S
H776     He777    9.998   .     S
H776     Na834    10.001   .     S
H776     Na873    10.001   .     S
H778     He780    9.998   .     S
H778     H779    9.994   .     S
H778     Na795    10.001   .     S
H778     Na909    10.001   .     S
H779     He780    9.998   .     S
H779     Na828    10.001   .     S
H779     Na906    10.001   .     S
H781     He783    9.998   .     S
H781     H782    9.994   .     S
H781     Na867    10.001   .     S
H781     Na936    10.001   .     S
H782     He783    9.998   .     S
H782     Na879    10.001   .     S
H782     Na903    10.001   .     S
H784     He786    9.998   .     S
H784     H785    9.994   .     S
H784     Na840    10.001   .     S
H784     Na915    10.001   .     S
H785     He786    9.998   .     S
H785     Na837    10.001   .     S
H785     Na912    10.001   .     S
H787     He789    9.998   .     S
H787     H788    9.994   .     S
H787     Na807    10.001   .     S
H787     Na864    10.001   .     S
H788     He789    9.998   .     S
H788     Na804    10.001   .     S
H788     Na843    10.001   .     S
H790     He792    9.998   .     S
H790     H791    9.994   .     S
H790     Na798    10.001   .     S
H790     Na870    10.001   .     S
H791     He792    9.998   .     S
H791     Na801    10.001   .     S
H791     Na900    10.001   .     S
F793     Na795    9.997   .     S
F793     Ne794    9.994   .     S
Ne794     Na795    9.997   .     S
Ne794     Er810    9.999   .     S
F796     Na798    9.997   .     S
F796     Ne797    9.994   .     S
Ne797     Na798    9.997   .     S
Ne797     Er816    9.999   .     S
F799     Na801    9.997   .     S
F799     Ne800    9.994   .     S
Ne800     Na801    9.997   .     S
Ne800     Er815    9.999   .     S
F802     Na804    9.997   .     S
F802     Ne803    9.994   .     S
Ne803     Na804    9.997   .     S
Ne803     Er822    9.999   .     S
F805     Na807    9.997   .     S
F805     Ne806    9.994   .     S
Ne806     Na807    9.997   .     S
Ne806     Er823    9.999   .     S
Be808     Er809    9.997   .     S
Be808     B820    9.996   1_556     S
Be808     Be825    9.997   1_556     S
Er809     Er810    9.99   .     S
Er809     Ti811    9.995   .     S
Er809     Ne827    9.999   .     S
Er810     Ti811    9.995   .     S
Er810     Be812    9.997   .     S
Be812     B813    9.996   1_556     S
Be812     Be818    9.997   1_546     S
B813     Be812    9.996   1_554     S
B813     Be818    9.996   1_545     S
B813     V945    9.998   .     S
Be814     Er815    9.997   .     S
Be814     B819    9.996   1_565     S
Be814     Be821    9.997   1_565     S
Er815     Er816    9.99   .     S
Er815     Ti817    9.995   .     S
Er816     Ti817    9.995   .     S
Er816     Be818    9.997   .     S
Be818     B813    9.996   1_565     S
Be818     Be812    9.997   1_564     S
B819     Be821    9.996   .     S
B819     Be814    9.996   1_545     S
B819     V943    9.998   .     S
B820     Be825    9.996   .     S
B820     Be808    9.996   1_554     S
B820     V944    9.998   .     S
Be821     Be814    9.997   1_545     S
Be821     Er823    9.997   .     S
Er822     Er823    9.99   .     S
Er822     Ti824    9.995   .     S
Er822     Be825    9.997   .     S
Er823     Ti824    9.995   .     S
Be825     Be808    9.997   1_554     S
F826     Na828    9.997   .     S
F826     Ne827    9.994   .     S
Ne827     Na828    9.997   .     S
F829     Na831    9.997   .     S
F829     Ne830    9.994   .     S
F829     Ce1027    10.0   .     S
Ne830     Na831    9.997   .     S
Ne830     Er847    9.999   .     S
F832     Na834    9.997   .     S
F832     Ne833    9.994   .     S
Ne833     Na834    9.997   .     S
Ne833     Er846    9.999   .     S
F835     Na837    9.997   .     S
F835     Ne836    9.994   .     S
Ne836     Na837    9.997   .     S
Ne836     Er858    9.999   .     S
F838     Na840    9.997   .     S
F838     Ne839    9.994   .     S
F838     Ce1039    10.0   .     S
Ne839     Na840    9.997   .     S
Ne839     Er859    9.999   .     S
F841     Na843    9.997   .     S
F841     Ne842    9.994   .     S
Ne842     Na843    9.997   .     S
Ne842     Er853    9.999   .     S
B844     Be845    9.996   .     S
B844     Be861    9.996   .     S
B844     V957    9.998   .     S
Be845     Be861    9.997   .     S
Be845     Er847    9.997   .     S
Er846     Er847    9.99   .     S
Er846     Ti848    9.995   .     S
Er846     Be849    9.997   .     S
Er847     Ti848    9.995   .     S
Be849     B850    9.996   .     S
Be849     Be851    9.997   .     S
B850     Be851    9.996   .     S
B850     V955    9.998   .     S
Be851     Er852    9.997   .     S
Er852     Er853    9.99   .     S
Er852     Ti854    9.995   .     S
Er852     Ne863    9.999   .     S
Er853     Ti854    9.995   .     S
Er853     Be855    9.997   .     S
Be855     B856    9.996   .     S
Be855     Be857    9.997   .     S
B856     Be857    9.996   .     S
B856     V956    9.998   .     S
Be857     Er859    9.997   .     S
Er858     Er859    9.99   .     S
Er858     Ti860    9.995   .     S
Er858     Be861    9.997   .     S
Er859     Ti860    9.995   .     S
F862     Na864    9.997   .     S
F862     Ne863    9.994   .     S
F862     Ce1030    10.0   .     S
Ne863     Na864    9.997   .     S
F865     Na867    9.997   .     S
F865     Ne866    9.994   .     S
Ne866     Na867    9.997   .     S
Ne866     Er887    9.999   .     S
F868     Na870    9.997   .     S
F868     Ne869    9.994   .     S
Ne869     Na870    9.997   .     S
Ne869     Er883    9.999   .     S
F871     Na873    9.997   .     S
F871     Ne872    9.994   .     S
Ne872     Na873    9.997   .     S
Ne872     Er894    9.999   .     S
F874     Na876    9.997   .     S
F874     Ne875    9.994   .     S
Ne875     Na876    9.997   .     S
Ne875     Er895    9.999   .     S
F877     Na879    9.997   .     S
F877     Ne878    9.994   .     S
Ne878     Na879    9.997   .     S
Ne878     Er888    9.999   .     S
B880     Be885    9.996   1_545     S
B880     Be886    9.996   1_455     S
B880     V948    9.998   .     S
Be881     Er882    9.997   .     S
Be881     B892    9.996   1_565     S
Be881     Be897    9.997   1_565     S
Er882     Er883    9.99   .     S
Er882     Ti884    9.995   .     S
Er882     Ne899    9.999   .     S
Er883     Ti884    9.995   .     S
Er883     Be885    9.997   .     S
Be885     B880    9.996   1_565     S
Be885     Be886    9.997   1_465     S
Be886     B880    9.996   1_655     S
Be886     Be885    9.997   1_645     S
Be886     Er888    9.997   .     S
Er887     Er888    9.99   .     S
Er887     Ti889    9.995   .     S
Er887     Be890    9.997   .     S
Er888     Ti889    9.995   .     S
Be890     B891    9.996   1_655     S
Be890     Be893    9.997   1_655     S
B891     Be890    9.996   1_455     S
B891     Be893    9.996   .     S
B891     V946    9.998   .     S
B892     Be881    9.996   1_545     S
B892     Be897    9.996   .     S
B892     V947    9.998   .     S
Be893     Be890    9.997   1_455     S
Be893     Er895    9.997   .     S
Er894     Er895    9.99   .     S
Er894     Ti896    9.995   .     S
Er894     Be897    9.997   .     S
Er895     Ti896    9.995   .     S
Be897     Be881    9.997   1_545     S
F898     Na900    9.997   .     S
F898     Ne899    9.994   .     S
Ne899     Na900    9.997   .     S
F901     Na903    9.997   .     S
F901     Ne902    9.994   .     S
Ne902     Na903    9.997   .     S
Ne902     Er918    9.999   .     S
F904     Na906    9.997   .     S
F904     Ne905    9.994   .     S
F904     Ce1021    10.0   .     S
Ne905     Na906    9.997   .     S
Ne905     Er923    9.999   .     S
F907     Na909    9.997   .     S
F907     Ne908    9.994   .     S
Ne908     Na909    9.997   .     S
Ne908     Er924    9.999   .     S
F910     Na912    9.997   .     S
F910     Ne911    9.994   .     S
Ne911     Na912    9.997   .     S
Ne911     Er931    9.999   .     S
F913     Na915    9.997   .     S
F913     Ne914    9.994   .     S
Ne914     Na915    9.997   .     S
Ne914     Er930    9.999   .     S
B916     Be921    9.996   1_455     S
B916     Be926    9.996   1_554     S
B916     V942    9.998   .     S
Be917     Er919    9.997   .     S
Be917     B927    9.996   1_655     S
Be917     Be929    9.997   1_655     S
Er918     Er919    9.99   .     S
Er918     Ti920    9.995   .     S
Er918     Be921    9.997   .     S
Er919     Ti920    9.995   .     S
Er919     Ne935    9.999   .     S
Be921     B916    9.996   1_655     S
Be921     Be926    9.997   1_654     S
Be922     Er923    9.997   .     S
Be922     B928    9.996   1_556     S
Be922     Be933    9.997   1_556     S
Er923     Er924    9.99   .     S
Er923     Ti925    9.995   .     S
Er924     Ti925    9.995   .     S
Er924     Be926    9.997   .     S
Be926     B916    9.996   1_556     S
Be926     Be921    9.997   1_456     S
B927     Be929    9.996   .     S
B927     Be917    9.996   1_455     S
B927     V941    9.998   .     S
B928     Be933    9.996   .     S
B928     Be922    9.996   1_554     S
B928     V940    9.998   .     S
Be929     Be917    9.997   1_455     S
Be929     Er931    9.997   .     S
Er930     Er931    9.99   .     S
Er930     Ti932    9.995   .     S
Er930     Be933    9.997   .     S
Er931     Ti932    9.995   .     S
Be933     Be922    9.997   1_554     S
F934     Na936    9.997   .     S
F934     Ne935    9.994   .     S
F934     Ce991    10.0   .     S
Ne935     Na936    9.997   .     S
Li937     Li939    9.997   .     S
Li937     Li938    9.997   .     S
Li937     V957    10.0   .     S
Li938     Li939    9.997   .     S
Li938     V941    10.0   .     S
Li939     V946    10.0   .     S
V940     V942    9.994   .     S
V940     V941    9.994   .     S
V940     Li952    10.0   .     S
V941     V942    9.994   .     S
V942     Li950    10.0   .     S
V943     V945    9.994   .     S
V943     V944    9.994   .     S
V943     Li960    10.0   .     S
V944     V945    9.994   .     S
V944     Li954    10.0   .     S
V945     Li951    10.0   .     S
V946     V948    9.994   .     S
V946     V947    9.994   .     S
V947     V948    9.994   .     S
V947     Li959    10.0   .     S
V948     Li949    10.0   .     S
Li949     Li950    9.997   .     S
Li949     Li951    9.997   .     S
Li950     Li951    9.997   .     S
Li952     Li953    9.997   .     S
Li952     Li954    9.997   .     S
Li953     Li954    9.997   .     S
Li953     V956    10.0   .     S
V955     V957    9.994   .     S
V955     V956    9.994   .     S
V955     Li958    10.0   .     S
V956     V957    9.994   .     S
Li958     Li959    9.997   .     S
Li958     Li960    9.997   .     S
Li959     Li960    9.997   .     S
Ce961     S963    9.996   .     S
Ce961     S962    9.996   1_554     S
Ce961     F2125    10.0   .     S
Ce961     F1543    10.0   1_554     S
S962     Ce961    9.996   1_556     S
S962     S963    9.999   1_556     S
S962     N365    10.009   1_556     S
S963     S962    9.999   1_554     S
S963     N460    10.009   1_554     S
Ce964     S965    9.996   .     S
Ce964     S966    9.996   1_545     S
Ce964     F1360    10.0   .     S
Ce964     F1921    10.0   1_545     S
S965     S966    9.999   1_545     S
S965     N527    10.009   1_545     S
S966     Ce964    9.996   1_565     S
S966     S965    9.999   1_565     S
S966     N389    10.009   1_565     S
Ce967     S969    9.996   .     S
Ce967     S968    9.996   1_455     S
Ce967     F1768    10.0   .     S
Ce967     F1231    10.0   1_455     S
S968     Ce967    9.996   1_655     S
S968     S969    9.999   1_655     S
S968     N376    10.009   1_655     S
S969     S968    9.999   1_455     S
S969     N574    10.009   1_455     S
Ce970     S972    9.996   1_554     S
Ce970     S971    9.996   .     S
Ce970     F2188    10.0   .     S
Ce970     F1600    10.0   1_554     S
S971     S972    9.999   1_554     S
S971     N490    10.009   1_554     S
S972     Ce970    9.996   1_556     S
S972     S971    9.999   1_556     S
S972     N343    10.009   1_556     S
Ce973     S975    9.996   .     S
Ce973     S974    9.996   .     S
Ce973     F1126    10.0   .     S
Ce973     F2077    10.0   .     S
S974     S975    9.999   .     S
Ce976     S978    9.996   .     S
Ce976     S977    9.996   .     S
Ce976     F1756    10.0   .     S
Ce976     F1930    10.0   .     S
S977     S978    9.999   .     S
Ce979     S981    9.996   .     S
Ce979     S980    9.996   .     S
Ce979     F1960    10.0   .     S
Ce979     F2080    10.0   .     S
S980     S981    9.999   .     S
Ce982     S984    9.996   .     S
Ce982     S983    9.996   .     S
Ce982     F1495    10.0   .     S
Ce982     F1285    10.0   .     S
S983     S984    9.999   .     S
Ce985     S987    9.996   .     S
Ce985     S986    9.996   .     S
Ce985     F1132    10.0   .     S
Ce985     F1288    10.0   .     S
S986     S987    9.999   .     S
Ce988     S990    9.996   .     S
Ce988     S989    9.996   .     S
Ce988     F1498    10.0   .     S
Ce988     F1795    10.0   .     S
S989     S990    9.999   .     S
Ce991     S992    9.996   .     S
Ce991     S993    9.996   .     S
Ce991     F1165    10.0   .     S
S992     S993    9.999   .     S
Ce994     S996    9.996   .     S
Ce994     S995    9.996   .     S
Ce994     F1792    10.0   .     S
Ce994     F1534    10.0   .     S
S995     S996    9.999   .     S
Ce997     S999    9.996   .     S
Ce997     S998    9.996   .     S
Ce997     F1366    10.0   .     S
Ce997     F1576    10.0   .     S
S998     S999    9.999   .     S
Ce1000     S1002    9.996   .     S
Ce1000     S1001    9.996   .     S
Ce1000     F2146    10.0   .     S
Ce1000     F1894    10.0   .     S
S1001     S1002    9.999   .     S
Ce1003     S1005    9.996   .     S
Ce1003     S1004    9.996   .     S
Ce1003     F1885    10.0   .     S
Ce1003     F1294    10.0   .     S
S1004     S1005    9.999   .     S
Ce1006     S1008    9.996   .     S
Ce1006     S1007    9.996   .     S
Ce1006     F1354    10.0   .     S
Ce1006     F1201    10.0   .     S
S1007     S1008    9.999   .     S
Ce1009     S1010    9.996   .     S
Ce1009     S1011    9.996   .     S
Ce1009     F1198    10.0   .     S
Ce1009     F1801    10.0   .     S
S1010     S1011    9.999   .     S
Ce1012     S1013    9.996   .     S
Ce1012     S1014    9.996   .     S
Ce1012     F1531    10.0   .     S
Ce1012     F2083    10.0   .     S
S1013     S1014    9.999   .     S
Ce1015     S1017    9.996   .     S
Ce1015     S1016    9.996   .     S
Ce1015     F2197    10.0   .     S
Ce1015     F1099    10.0   .     S
S1016     S1017    9.999   .     S
Ce1018     S1020    9.996   .     S
Ce1018     S1019    9.996   .     S
Ce1018     F1957    10.0   .     S
Ce1018     F1798    10.0   .     S
S1019     S1020    9.999   .     S
Ce1021     S1023    9.996   .     S
Ce1021     S1022    9.996   .     S
Ce1021     F1606    10.0   .     S
S1022     S1023    9.999   .     S
Ce1024     S1026    9.996   .     S
Ce1024     S1025    9.996   .     S
Ce1024     F1807    10.0   .     S
Ce1024     F1096    10.0   .     S
S1025     S1026    9.999   .     S
Ce1027     S1028    9.996   .     S
Ce1027     S1029    9.996   .     S
Ce1027     F1204    10.0   .     S
S1028     S1029    9.999   .     S
Ce1030     S1031    9.996   .     S
Ce1030     S1032    9.996   .     S
Ce1030     F1891    10.0   .     S
S1031     S1032    9.999   .     S
Ce1033     S1035    9.996   .     S
Ce1033     S1034    9.996   .     S
Ce1033     F1573    10.0   .     S
Ce1033     F2110    10.0   .     S
S1034     S1035    9.999   .     S
Ce1036     S1038    9.996   .     S
Ce1036     S1037    9.996   .     S
Ce1036     F1318    10.0   .     S
Ce1036     F1933    10.0   .     S
S1037     S1038    9.999   .     S
Ce1039     S1040    9.996   .     S
Ce1039     S1041    9.996   .     S
Ce1039     F1540    10.0   .     S
S1040     S1041    9.999   .     S
Ce1042     S1043    9.996   .     S
Ce1042     S1044    9.996   .     S
Ce1042     F2218    10.0   .     S
Ce1042     F1168    10.0   .     S
S1043     S1044    9.999   .     S
Ce1045     S1046    9.996   .     S
Ce1045     S1047    9.996   .     S
Ce1045     F1390    10.0   .     S
Ce1045     F1609    10.0   .     S
S1046     S1047    9.999   .     S
Ce1048     S1050    9.996   .     S
Ce1048     S1049    9.996   .     S
Ce1048     F1507    10.0   .     S
Ce1048     F2113    10.0   .     S
S1049     S1050    9.999   .     S
Ce1051     S1053    9.996   .     S
Ce1051     S1052    9.996   .     S
Ce1051     F1129    10.0   .     S
Ce1051     F1771    10.0   .     S
S1052     S1053    9.999   .     S
Ce1054     S1056    9.996   .     S
Ce1054     S1055    9.996   .     S
Ce1054     F1969    10.0   .     S
Ce1054     F1324    10.0   .     S
S1055     S1056    9.999   .     S
S1057     Ce1058    9.996   .     S
S1057     S1059    9.999   .     S
Ce1058     S1059    9.996   .     S
Ce1058     F2152    10.0   .     S
Ce1058     F1093    10.0   .     S
Ce1060     S1062    9.996   .     S
Ce1060     S1061    9.996   .     S
Ce1060     F1138    10.0   .     S
Ce1060     F1723    10.0   .     S
S1061     S1062    9.999   .     S
Ce1063     S1064    9.996   .     S
Ce1063     S1065    9.996   .     S
Ce1063     F1405    10.0   .     S
Ce1063     F1210    10.0   .     S
S1064     S1065    9.999   .     S
S1066     Ce1067    9.996   .     S
S1066     S1068    9.999   .     S
Ce1067     S1068    9.996   .     S
Ce1067     F1402    10.0   .     S
Ce1067     F1135    10.0   .     S
Ce1069     S1070    9.996   .     S
Ce1069     S1071    9.996   .     S
Ce1069     F2149    10.0   .     S
Ce1069     F1159    10.0   .     S
S1070     S1071    9.999   .     S
H1072     He1074    9.998   .     S
H1072     H1073    9.994   .     S
H1072     Na1104    10.001   .     S
H1072     Na1167    10.001   .     S
H1073     He1074    9.998   .     S
H1073     Na1101    10.001   .     S
H1073     Na1170    10.001   .     S
H1075     He1077    9.998   .     S
H1075     H1076    9.994   .     S
H1075     Na1092    10.001   .     S
H1075     Na1206    10.001   .     S
H1076     He1077    9.998   .     S
H1076     Na1098    10.001   .     S
H1076     Na1200    10.001   .     S
H1078     He1080    9.998   .     S
H1078     H1079    9.994   .     S
H1078     Na1134    10.001   .     S
H1078     Na1164    10.001   .     S
H1079     He1080    9.998   .     S
H1079     Na1128    10.001   .     S
H1079     Na1197    10.001   .     S
H1081     He1083    9.998   .     S
H1081     H1082    9.994   .     S
H1081     Na1137    10.001   .     S
H1081     Na1212    10.001   .     S
H1082     He1083    9.998   .     S
H1082     Na1131    10.001   .     S
H1082     Na1233    10.001   .     S
H1084     He1086    9.998   .     S
H1084     H1085    9.994   .     S
H1084     Na1095    10.001   .     S
H1084     Na1161    10.001   .     S
H1085     He1086    9.998   .     S
H1085     Na1125    10.001   .     S
H1085     Na1140    10.001   .     S
H1087     He1089    9.998   .     S
H1087     H1088    9.994   .     S
H1087     Na1176    10.001   .     S
H1087     Na1203    10.001   .     S
H1088     He1089    9.998   .     S
H1088     Na1173    10.001   .     S
H1088     Na1209    10.001   .     S
F1090     Na1092    9.997   .     S
F1090     Ne1091    9.994   .     S
Ne1091     Na1092    9.997   .     S
Ne1091     Er1107    9.999   .     S
F1093     Na1095    9.997   .     S
F1093     Ne1094    9.994   .     S
Ne1094     Na1095    9.997   .     S
Ne1094     Er1114    9.999   .     S
F1096     Na1098    9.997   .     S
F1096     Ne1097    9.994   .     S
Ne1097     Na1098    9.997   .     S
Ne1097     Er1108    9.999   .     S
F1099     Na1101    9.997   .     S
F1099     Ne1100    9.994   .     S
Ne1100     Na1101    9.997   .     S
Ne1100     Er1120    9.999   .     S
F1102     Ce709    10.0   1_655     S
F1102     Na1104    9.997   .     S
F1102     Ne1103    9.994   .     S
Ne1103     Na1104    9.997   .     S
Ne1103     Er1119    9.999   .     S
B1105     Be1106    9.996   1_655     S
B1105     Be1112    9.996   .     S
B1105     V1246    9.998   .     S
Be1106     B1105    9.996   1_455     S
Be1106     Be1112    9.997   1_455     S
Be1106     Er1108    9.997   .     S
Er1107     Er1108    9.99   .     S
Er1107     Ti1109    9.995   .     S
Er1107     Be1110    9.997   .     S
Er1108     Ti1109    9.995   .     S
Be1110     B1111    9.996   1_455     S
Be1110     Be1118    9.997   1_455     S
B1111     Be1110    9.996   1_655     S
B1111     Be1118    9.996   .     S
B1111     V1247    9.998   .     S
Be1112     Be1106    9.997   1_655     S
Be1112     Er1113    9.997   .     S
Er1113     Er1114    9.99   .     S
Er1113     Ti1115    9.995   .     S
Er1113     Ne1124    9.999   .     S
Er1114     Ti1115    9.995   .     S
Er1114     Be1116    9.997   .     S
Be1116     B1117    9.996   .     S
Be1116     Be1122    9.997   .     S
B1117     Be1122    9.996   .     S
B1117     V1248    9.998   .     S
Be1118     Be1110    9.997   1_655     S
Be1118     Er1119    9.997   .     S
Er1119     Er1120    9.99   .     S
Er1119     Ti1121    9.995   .     S
Er1120     Ti1121    9.995   .     S
Er1120     Be1122    9.997   .     S
F1123     Ce748    10.0   1_655     S
F1123     Na1125    9.997   .     S
F1123     Ne1124    9.994   .     S
Ne1124     Na1125    9.997   .     S
F1126     Na1128    9.997   .     S
F1126     Ne1127    9.994   .     S
Ne1127     Na1128    9.997   .     S
Ne1127     Er1144    9.999   .     S
F1129     Na1131    9.997   .     S
F1129     Ne1130    9.994   .     S
Ne1130     Na1131    9.997   .     S
Ne1130     Er1156    9.999   .     S
F1132     Na1134    9.997   .     S
F1132     Ne1133    9.994   .     S
Ne1133     Na1134    9.997   .     S
Ne1133     Er1145    9.999   .     S
F1135     Na1137    9.997   .     S
F1135     Ne1136    9.994   .     S
Ne1136     Na1137    9.997   .     S
Ne1136     Er1155    9.999   .     S
F1138     Na1140    9.997   .     S
F1138     Ne1139    9.994   .     S
Ne1139     Na1140    9.997   .     S
Ne1139     Er1150    9.999   .     S
B1141     Be1143    9.996   .     S
B1141     Be1154    9.996   .     S
B1141     V1235    9.998   .     S
B1142     Be1147    9.996   .     S
B1142     Be1148    9.996   .     S
B1142     V1234    9.998   .     S
Be1143     Be1154    9.997   .     S
Be1143     Er1145    9.997   .     S
Er1144     Er1145    9.99   .     S
Er1144     Ti1146    9.995   .     S
Er1144     Be1147    9.997   .     S
Er1145     Ti1146    9.995   .     S
Be1147     Be1148    9.997   .     S
Be1148     Er1149    9.997   .     S
Er1149     Er1150    9.99   .     S
Er1149     Ti1151    9.995   .     S
Er1149     Ne1160    9.999   .     S
Er1150     Ti1151    9.995   .     S
Er1150     Be1152    9.997   .     S
Be1152     B1153    9.996   .     S
Be1152     Be1158    9.997   .     S
B1153     Be1158    9.996   .     S
B1153     V1236    9.998   .     S
Be1154     Er1155    9.997   .     S
Er1155     Er1156    9.99   .     S
Er1155     Ti1157    9.995   .     S
Er1156     Ti1157    9.995   .     S
Er1156     Be1158    9.997   .     S
F1159     Na1161    9.997   .     S
F1159     Ne1160    9.994   .     S
Ne1160     Na1161    9.997   .     S
F1162     Na1164    9.997   .     S
F1162     Ne1163    9.994   .     S
Ne1163     Na1164    9.997   .     S
Ne1163     Er1180    9.999   .     S
F1165     Na1167    9.997   .     S
F1165     Ne1166    9.994   .     S
Ne1166     Na1167    9.997   .     S
Ne1166     Er1192    9.999   .     S
F1168     Na1170    9.997   .     S
F1168     Ne1169    9.994   .     S
Ne1169     Na1170    9.997   .     S
Ne1169     Er1191    9.999   .     S
F1171     Na1173    9.997   .     S
F1171     Ne1172    9.994   .     S
Ne1172     Na1173    9.997   .     S
Ne1172     Er1185    9.999   .     S
F1174     Na1176    9.997   .     S
F1174     Ne1175    9.994   .     S
F1174     Ce1258    10.0   .     S
Ne1175     Na1176    9.997   .     S
Ne1175     Er1184    9.999   .     S
B1177     Be1182    9.996   .     S
B1177     Be1187    9.996   .     S
B1177     V1237    9.998   .     S
Be1178     Er1179    9.997   .     S
Be1178     B1188    9.996   .     S
Be1178     Be1190    9.997   .     S
Er1179     Er1180    9.99   .     S
Er1179     Ti1181    9.995   .     S
Er1179     Ne1196    9.999   .     S
Er1180     Ti1181    9.995   .     S
Er1180     Be1182    9.997   .     S
Be1182     Be1187    9.997   .     S
Be1183     Er1185    9.997   .     S
Be1183     B1189    9.996   .     S
Be1183     Be1194    9.997   .     S
Er1184     Er1185    9.99   .     S
Er1184     Ti1186    9.995   .     S
Er1184     Be1187    9.997   .     S
Er1185     Ti1186    9.995   .     S
B1188     Be1190    9.996   .     S
B1188     V1239    9.998   .     S
B1189     Be1194    9.996   .     S
B1189     V1238    9.998   .     S
Be1190     Er1191    9.997   .     S
Er1191     Er1192    9.99   .     S
Er1191     Ti1193    9.995   .     S
Er1192     Ti1193    9.995   .     S
Er1192     Be1194    9.997   .     S
F1195     Na1197    9.997   .     S
F1195     Ne1196    9.994   .     S
Ne1196     Na1197    9.997   .     S
F1198     Na1200    9.997   .     S
F1198     Ne1199    9.994   .     S
Ne1199     Na1200    9.997   .     S
Ne1199     Er1216    9.999   .     S
F1201     Na1203    9.997   .     S
F1201     Ne1202    9.994   .     S
Ne1202     Na1203    9.997   .     S
Ne1202     Er1222    9.999   .     S
F1204     Na1206    9.997   .     S
F1204     Ne1205    9.994   .     S
Ne1205     Na1206    9.997   .     S
Ne1205     Er1215    9.999   .     S
F1207     Ce721    10.0   1_655     S
F1207     Na1209    9.997   .     S
F1207     Ne1208    9.994   .     S
Ne1208     Na1209    9.997   .     S
Ne1208     Er1221    9.999   .     S
F1210     Na1212    9.997   .     S
F1210     Ne1211    9.994   .     S
Ne1211     Na1212    9.997   .     S
Ne1211     Er1228    9.999   .     S
B1213     Be1226    9.996   .     S
B1213     Be1218    9.996   1_655     S
B1213     V1252    9.998   .     S
Be1214     Er1215    9.997   .     S
Be1214     B1219    9.996   1_455     S
Be1214     Be1220    9.997   1_455     S
Er1215     Er1216    9.99   .     S
Er1215     Ti1217    9.995   .     S
Er1216     Ti1217    9.995   .     S
Er1216     Be1218    9.997   .     S
Be1218     B1213    9.996   1_455     S
Be1218     Be1226    9.997   1_455     S
B1219     Be1214    9.996   1_655     S
B1219     Be1220    9.996   .     S
B1219     V1253    9.998   .     S
Be1220     Be1214    9.997   1_655     S
Be1220     Er1221    9.997   .     S
Er1221     Er1222    9.99   .     S
Er1221     Ti1223    9.995   .     S
Er1222     Ti1223    9.995   .     S
Er1222     Be1224    9.997   .     S
Be1224     B1225    9.996   .     S
Be1224     Be1230    9.997   .     S
B1225     Be1230    9.996   .     S
B1225     V1254    9.998   .     S
Be1226     Be1218    9.997   1_655     S
Be1226     Er1227    9.997   .     S
Er1227     Er1228    9.99   .     S
Er1227     Ti1229    9.995   .     S
Er1227     Ne1232    9.999   .     S
Er1228     Ti1229    9.995   .     S
Er1228     Be1230    9.997   .     S
F1231     Ce967    10.0   1_655     S
F1231     Na1233    9.997   .     S
F1231     Ne1232    9.994   .     S
Ne1232     Na1233    9.997   .     S
V1234     V1236    9.994   .     S
V1234     V1235    9.994   .     S
V1234     Li1249    10.0   .     S
V1235     V1236    9.994   .     S
V1235     Li1240    10.0   .     S
V1236     Li1245    10.0   .     S
V1237     V1238    9.994   .     S
V1237     V1239    9.994   .     S
V1237     Li1242    10.0   .     S
V1238     V1239    9.994   .     S
V1238     Li1257    10.0   .     S
V1239     Li1250    10.0   .     S
Li1240     Li1241    9.997   .     S
Li1240     Li1242    9.997   .     S
Li1241     Li1242    9.997   .     S
Li1241     V1254    10.0   .     S
Li1243     Li1245    9.997   .     S
Li1243     Li1244    9.997   .     S
Li1243     V1246    10.0   .     S
Li1244     Li1245    9.997   .     S
Li1244     V1252    10.0   .     S
V1246     V1248    9.994   .     S
V1246     V1247    9.994   .     S
V1247     V1248    9.994   .     S
V1247     Li1256    10.0   .     S
V1248     Li1251    10.0   .     S
Li1249     Li1251    9.997   .     S
Li1249     Li1250    9.997   .     S
Li1250     Li1251    9.997   .     S
V1252     V1254    9.994   .     S
V1252     V1253    9.994   .     S
V1253     V1254    9.994   .     S
V1253     Li1255    10.0   .     S
Li1255     Li1257    9.997   .     S
Li1255     Li1256    9.997   .     S
Li1256     Li1257    9.997   .     S
Ce1258     S1259    9.996   .     S
Ce1258     S1260    9.996   .     S
Ce1258     F1327    10.0   .     S
S1259     S1260    9.999   .     S
Ce1261     S1262    9.996   .     S
Ce1261     S1263    9.996   .     S
Ce1261     F1369    10.0   .     S
Ce1261     F2401    10.0   .     S
S1262     S1263    9.999   .     S
S1264     Ce1265    9.996   .     S
S1264     S1266    9.999   .     S
Ce1265     S1266    9.996   .     S
Ce1265     F1321    10.0   .     S
Ce1265     F2389    10.0   .     S
H1267     He1269    9.998   .     S
H1267     H1268    9.994   .     S
H1267     Na1293    10.001   .     S
H1267     Na1392    10.001   .     S
H1268     He1269    9.998   .     S
H1268     Na1320    10.001   .     S
H1268     Na1362    10.001   .     S
H1270     He1272    9.998   .     S
H1270     H1271    9.994   .     S
H1270     Na1335    10.001   .     S
H1270     Na1401    10.001   .     S
H1271     He1272    9.998   .     S
H1271     Na1356    10.001   .     S
H1271     Na1407    10.001   .     S
H1273     He1275    9.998   .     S
H1273     H1274    9.994   .     S
H1273     Na1323    10.001   .     S
H1273     Na1371    10.001   .     S
H1274     He1275    9.998   .     S
H1274     Na1326    10.001   .     S
H1274     Na1359    10.001   .     S
H1276     He1278    9.998   .     S
H1276     H1277    9.994   .     S
H1276     Na1287    10.001   .     S
H1276     Na1398    10.001   .     S
H1277     He1278    9.998   .     S
H1277     Na1290    10.001   .     S
H1277     Na1404    10.001   .     S
H1279     He1281    9.998   .     S
H1279     H1280    9.994   .     S
H1279     Na1365    10.001   .     S
H1279     Na1428    10.001   .     S
H1280     He1281    9.998   .     S
H1280     Na1368    10.001   .     S
H1280     Na1395    10.001   .     S
H1282     He1284    9.998   .     S
H1282     H1283    9.994   .     S
H1282     Na1299    10.001   .     S
H1282     Na1329    10.001   .     S
H1283     He1284    9.998   .     S
H1283     Na1296    10.001   .     S
H1283     Na1332    10.001   .     S
F1285     Na1287    9.997   .     S
F1285     Ne1286    9.994   .     S
Ne1286     Na1287    9.997   .     S
Ne1286     Er1315    9.999   .     S
F1288     Na1290    9.997   .     S
F1288     Ne1289    9.994   .     S
Ne1289     Na1290    9.997   .     S
Ne1289     Er1314    9.999   .     S
F1291     Na1293    9.997   .     S
F1291     Ne1292    9.994   .     S
Ne1292     Na1293    9.997   .     S
Ne1292     Er1303    9.999   .     S
F1294     Na1296    9.997   .     S
F1294     Ne1295    9.994   .     S
Ne1295     Na1296    9.997   .     S
Ne1295     Er1308    9.999   .     S
F1297     Na1299    9.997   .     S
F1297     Ne1298    9.994   .     S
Ne1298     Na1299    9.997   .     S
Ne1298     Er1309    9.999   .     S
B1300     Be1301    9.996   .     S
B1300     Be1311    9.996   .     S
B1300     V1440    9.998   .     S
Be1301     Be1311    9.997   .     S
Be1301     Er1302    9.997   .     S
Er1302     Er1303    9.99   .     S
Er1302     Ti1304    9.995   .     S
Er1302     Ne1319    9.999   .     S
Er1303     Ti1304    9.995   .     S
Er1303     Be1305    9.997   .     S
Be1305     B1306    9.996   .     S
Be1305     Be1313    9.997   .     S
B1306     Be1313    9.996   .     S
B1306     V1439    9.998   .     S
Be1307     Er1309    9.997   .     S
Be1307     B1312    9.996   .     S
Be1307     Be1317    9.997   .     S
Er1308     Er1309    9.99   .     S
Er1308     Ti1310    9.995   .     S
Er1308     Be1311    9.997   .     S
Er1309     Ti1310    9.995   .     S
B1312     Be1317    9.996   .     S
B1312     V1438    9.998   .     S
Be1313     Er1315    9.997   .     S
Er1314     Er1315    9.99   .     S
Er1314     Ti1316    9.995   .     S
Er1314     Be1317    9.997   .     S
Er1315     Ti1316    9.995   .     S
F1318     Na1320    9.997   .     S
F1318     Ne1319    9.994   .     S
Ne1319     Na1320    9.997   .     S
F1321     Na1323    9.997   .     S
F1321     Ne1322    9.994   .     S
Ne1322     Na1323    9.997   .     S
Ne1322     Er1345    9.999   .     S
F1324     Na1326    9.997   .     S
F1324     Ne1325    9.994   .     S
Ne1325     Na1326    9.997   .     S
Ne1325     Er1344    9.999   .     S
F1327     Na1329    9.997   .     S
F1327     Ne1328    9.994   .     S
Ne1328     Na1329    9.997   .     S
Ne1328     Er1350    9.999   .     S
F1330     Na1332    9.997   .     S
F1330     Ne1331    9.994   .     S
Ne1331     Na1332    9.997   .     S
Ne1331     Er1351    9.999   .     S
F1333     Na1335    9.997   .     S
F1333     Ne1334    9.994   .     S
Ne1334     Na1335    9.997   .     S
Ne1334     Er1340    9.999   .     S
B1336     Be1353    9.996   .     S
B1336     Be1338    9.996   .     S
B1336     V1444    9.998   .     S
B1337     Be1347    9.996   1_545     S
B1337     Be1342    9.996   .     S
B1337     V1445    9.998   .     S
Be1338     Be1353    9.997   .     S
Be1338     Er1339    9.997   .     S
Er1339     Er1340    9.99   .     S
Er1339     Ti1341    9.995   .     S
Er1339     Ne1355    9.999   .     S
Er1340     Ti1341    9.995   .     S
Er1340     Be1342    9.997   .     S
Be1342     Be1347    9.997   1_545     S
Be1343     Er1344    9.997   .     S
Be1343     B1348    9.996   1_565     S
Be1343     Be1349    9.997   1_565     S
Er1344     Er1345    9.99   .     S
Er1344     Ti1346    9.995   .     S
Er1345     Ti1346    9.995   .     S
Er1345     Be1347    9.997   .     S
Be1347     B1337    9.996   1_565     S
Be1347     Be1342    9.997   1_565     S
B1348     Be1349    9.996   .     S
B1348     Be1343    9.996   1_545     S
B1348     V1446    9.998   .     S
Be1349     Be1343    9.997   1_545     S
Be1349     Er1351    9.997   .     S
Er1350     Er1351    9.99   .     S
Er1350     Ti1352    9.995   .     S
Er1350     Be1353    9.997   .     S
Er1351     Ti1352    9.995   .     S
F1354     Na1356    9.997   .     S
F1354     Ne1355    9.994   .     S
Ne1355     Na1356    9.997   .     S
F1357     Na1359    9.997   .     S
F1357     Ne1358    9.994   .     S
F1357     Ce1453    10.0   .     S
Ne1358     Na1359    9.997   .     S
Ne1358     Er1380    9.999   .     S
F1360     Na1362    9.997   .     S
F1360     Ne1361    9.994   .     S
Ne1361     Na1362    9.997   .     S
Ne1361     Er1387    9.999   .     S
F1363     Na1365    9.997   .     S
F1363     Ne1364    9.994   .     S
Ne1364     Na1365    9.997   .     S
Ne1364     Er1376    9.999   .     S
F1366     Na1368    9.997   .     S
F1366     Ne1367    9.994   .     S
Ne1367     Na1368    9.997   .     S
Ne1367     Er1375    9.999   .     S
F1369     Na1371    9.997   .     S
F1369     Ne1370    9.994   .     S
Ne1370     Na1371    9.997   .     S
Ne1370     Er1381    9.999   .     S
B1372     Be1379    9.996   1_545     S
B1372     Be1378    9.996   .     S
B1372     V1447    9.998   .     S
B1373     Be1385    9.996   .     S
B1373     Be1374    9.996   .     S
B1373     V1448    9.998   .     S
Be1374     Be1385    9.997   .     S
Be1374     Er1375    9.997   .     S
Er1375     Er1376    9.99   .     S
Er1375     Ti1377    9.995   .     S
Er1376     Ti1377    9.995   .     S
Er1376     Be1378    9.997   .     S
Be1378     Be1379    9.997   1_545     S
Be1379     B1372    9.996   1_565     S
Be1379     Be1378    9.997   1_565     S
Be1379     Er1381    9.997   .     S
Er1380     Er1381    9.99   .     S
Er1380     Ti1382    9.995   .     S
Er1380     Be1383    9.997   .     S
Er1381     Ti1382    9.995   .     S
Be1383     B1384    9.996   1_565     S
Be1383     Be1389    9.997   1_565     S
B1384     Be1389    9.996   .     S
B1384     Be1383    9.996   1_545     S
B1384     V1449    9.998   .     S
Be1385     Er1386    9.997   .     S
Er1386     Er1387    9.99   .     S
Er1386     Ti1388    9.995   .     S
Er1386     Ne1391    9.999   .     S
Er1387     Ti1388    9.995   .     S
Er1387     Be1389    9.997   .     S
Be1389     Be1383    9.997   1_545     S
F1390     Na1392    9.997   .     S
F1390     Ne1391    9.994   .     S
Ne1391     Na1392    9.997   .     S
F1393     Na1395    9.997   .     S
F1393     Ne1394    9.994   .     S
F1393     Ce1460    10.0   .     S
Ne1394     Na1395    9.997   .     S
Ne1394     Er1423    9.999   .     S
F1396     Na1398    9.997   .     S
F1396     Ne1397    9.994   .     S
F1396     Ce1474    10.0   .     S
Ne1397     Na1398    9.997   .     S
Ne1397     Er1409    9.999   .     S
F1399     Na1401    9.997   .     S
F1399     Ne1400    9.994   .     S
F1399     Ce2254    10.0   .     S
Ne1400     Na1401    9.997   .     S
Ne1400     Er1416    9.999   .     S
F1402     Na1404    9.997   .     S
F1402     Ne1403    9.994   .     S
Ne1403     Na1404    9.997   .     S
Ne1403     Er1410    9.999   .     S
F1405     Na1407    9.997   .     S
F1405     Ne1406    9.994   .     S
Ne1406     Na1407    9.997   .     S
Ne1406     Er1417    9.999   .     S
Be1408     Er1410    9.997   .     S
Be1408     B1414    9.996   .     S
Be1408     Be1415    9.997   .     S
Er1409     Er1410    9.99   .     S
Er1409     Ti1411    9.995   .     S
Er1409     Be1412    9.997   .     S
Er1410     Ti1411    9.995   .     S
Be1412     B1413    9.996   .     S
Be1412     Be1425    9.997   .     S
B1413     Be1425    9.996   .     S
B1413     V1429    9.998   .     S
B1414     Be1415    9.996   .     S
B1414     V1430    9.998   .     S
Be1415     Er1417    9.997   .     S
Er1416     Er1417    9.99   .     S
Er1416     Ti1418    9.995   .     S
Er1416     Be1419    9.997   .     S
Er1417     Ti1418    9.995   .     S
Be1419     B1420    9.996   .     S
Be1419     Be1421    9.997   .     S
B1420     Be1421    9.996   .     S
B1420     V1431    9.998   .     S
Be1421     Er1422    9.997   .     S
Er1422     Er1423    9.99   .     S
Er1422     Ti1424    9.995   .     S
Er1422     Ne1427    9.999   .     S
Er1423     Ti1424    9.995   .     S
Er1423     Be1425    9.997   .     S
F1426     Na1428    9.997   .     S
F1426     Ne1427    9.994   .     S
F1426     Ce2245    10.0   .     S
Ne1427     Na1428    9.997   .     S
V1429     V1431    9.994   .     S
V1429     V1430    9.994   .     S
V1429     Li1435    10.0   .     S
V1430     V1431    9.994   .     S
V1430     Li1442    10.0   .     S
V1431     Li1450    10.0   .     S
Li1432     Li1433    9.997   .     S
Li1432     Li1434    9.997   .     S
Li1432     V1440    10.0   .     S
Li1433     Li1434    9.997   .     S
Li1433     V1449    10.0   .     S
Li1434     V1446    10.0   .     S
Li1435     Li1437    9.997   .     S
Li1435     Li1436    9.997   .     S
Li1436     Li1437    9.997   .     S
Li1436     V1448    10.0   .     S
Li1437     V1439    10.0   .     S
V1438     V1440    9.994   .     S
V1438     V1439    9.994   .     S
V1438     Li1441    10.0   .     S
V1439     V1440    9.994   .     S
Li1441     Li1443    9.997   .     S
Li1441     Li1442    9.997   .     S
Li1442     Li1443    9.997   .     S
Li1443     V1444    10.0   .     S
V1444     V1445    9.994   .     S
V1444     V1446    9.994   .     S
V1445     V1446    9.994   .     S
V1445     Li1452    10.0   .     S
V1447     V1448    9.994   .     S
V1447     V1449    9.994   .     S
V1447     Li1451    10.0   .     S
V1448     V1449    9.994   .     S
Li1450     Li1452    9.997   .     S
Li1450     Li1451    9.997   .     S
Li1451     Li1452    9.997   .     S
Ce1453     S1455    9.996   .     S
Ce1453     S1454    9.996   .     S
Ce1453     F1966    10.0   .     S
S1454     S1455    9.999   .     S
S1456     Ce1457    9.996   .     S
S1456     S1458    9.999   .     S
Ce1457     S1458    9.996   .     S
Ce1457     F1501    10.0   .     S
Ce1457     F2185    10.0   .     S
S1459     Ce1460    9.996   .     S
S1459     S1461    9.999   .     S
Ce1460     S1461    9.996   .     S
Ce1460     F1570    10.0   .     S
S1462     Ce1463    9.996   .     S
S1462     S1464    9.999   .     S
Ce1463     S1464    9.996   .     S
Ce1463     F1696    10.0   .     S
Ce1463     F1924    10.0   .     S
Ce1465     S1466    9.996   .     S
Ce1465     S1467    9.996   .     S
Ce1465     F2182    10.0   .     S
Ce1465     F1918    10.0   .     S
S1466     S1467    9.999   .     S
Ce1468     S1469    9.996   .     S
Ce1468     S1470    9.996   .     S
Ce1468     F1762    10.0   .     S
Ce1468     F1612    10.0   .     S
S1469     S1470    9.999   .     S
Ce1471     S1473    9.996   .     S
Ce1471     S1472    9.996   .     S
Ce1471     F1693    10.0   .     S
Ce1471     F1504    10.0   .     S
S1472     S1473    9.999   .     S
Ce1474     S1475    9.996   .     S
Ce1474     S1476    9.996   .     S
Ce1474     F1528    10.0   .     S
S1475     S1476    9.999   .     S
H1477     He1479    9.998   .     S
H1477     H1478    9.994   .     S
H1477     Na1581    10.001   .     S
H1477     Na1638    10.001   .     S
H1478     He1479    9.998   .     S
H1478     Na1578    10.001   .     S
H1478     Na1611    10.001   .     S
H1480     He1482    9.998   .     S
H1480     H1481    9.994   .     S
H1480     Na1506    10.001   .     S
H1480     Na1566    10.001   .     S
H1481     He1482    9.998   .     S
H1481     Na1509    10.001   .     S
H1481     Na1545    10.001   .     S
H1483     He1485    9.998   .     S
H1483     H1484    9.994   .     S
H1483     Na1542    10.001   .     S
H1483     Na1569    10.001   .     S
H1484     He1485    9.998   .     S
H1484     Na1533    10.001   .     S
H1484     Na1575    10.001   .     S
H1486     He1488    9.998   .     S
H1486     H1487    9.994   .     S
H1486     Na1497    10.001   .     S
H1486     Na1617    10.001   .     S
H1487     He1488    9.998   .     S
H1487     Na1500    10.001   .     S
H1487     Na1605    10.001   .     S
H1489     He1491    9.998   .     S
H1489     H1490    9.994   .     S
H1489     Na1530    10.001   .     S
H1489     Na1572    10.001   .     S
H1490     He1491    9.998   .     S
H1490     Na1503    10.001   .     S
H1490     Na1602    10.001   .     S
H1492     He1494    9.998   .     S
H1492     H1493    9.994   .     S
H1492     Na1539    10.001   .     S
H1492     Na1608    10.001   .     S
H1493     He1494    9.998   .     S
H1493     Na1536    10.001   .     S
H1493     Na1614    10.001   .     S
F1495     Na1497    9.997   .     S
F1495     Ne1496    9.994   .     S
Ne1496     Na1497    9.997   .     S
Ne1496     Er1514    9.999   .     S
F1498     Na1500    9.997   .     S
F1498     Ne1499    9.994   .     S
Ne1499     Na1500    9.997   .     S
Ne1499     Er1513    9.999   .     S
F1501     Na1503    9.997   .     S
F1501     Ne1502    9.994   .     S
Ne1502     Na1503    9.997   .     S
Ne1502     Er1525    9.999   .     S
F1504     Na1506    9.997   .     S
F1504     Ne1505    9.994   .     S
Ne1505     Na1506    9.997   .     S
Ne1505     Er1518    9.999   .     S
F1507     Na1509    9.997   .     S
F1507     Ne1508    9.994   .     S
Ne1508     Na1509    9.997   .     S
Ne1508     Er1519    9.999   .     S
B1510     Be1523    9.996   .     S
B1510     Be1512    9.996   .     S
B1510     V1642    9.998   .     S
B1511     Be1516    9.996   .     S
B1511     Be1521    9.996   .     S
B1511     V1643    9.998   .     S
Be1512     Be1523    9.997   .     S
Be1512     Er1514    9.997   .     S
Er1513     Er1514    9.99   .     S
Er1513     Ti1515    9.995   .     S
Er1513     Be1516    9.997   .     S
Er1514     Ti1515    9.995   .     S
Be1516     Be1521    9.997   .     S
Be1517     Er1519    9.997   .     S
Be1517     B1522    9.996   .     S
Be1517     Be1527    9.997   .     S
Er1518     Er1519    9.99   .     S
Er1518     Ti1520    9.995   .     S
Er1518     Be1521    9.997   .     S
Er1519     Ti1520    9.995   .     S
B1522     Be1527    9.996   .     S
B1522     V1644    9.998   .     S
Be1523     Er1524    9.997   .     S
Er1524     Er1525    9.99   .     S
Er1524     Ti1526    9.995   .     S
Er1524     Ne1529    9.999   .     S
Er1525     Ti1526    9.995   .     S
Er1525     Be1527    9.997   .     S
F1528     Na1530    9.997   .     S
F1528     Ne1529    9.994   .     S
Ne1529     Na1530    9.997   .     S
F1531     Na1533    9.997   .     S
F1531     Ne1532    9.994   .     S
Ne1532     Na1533    9.997   .     S
Ne1532     Er1561    9.999   .     S
F1534     Na1536    9.997   .     S
F1534     Ne1535    9.994   .     S
Ne1535     Na1536    9.997   .     S
Ne1535     Er1550    9.999   .     S
F1537     Ce715    10.0   1_556     S
F1537     Na1539    9.997   .     S
F1537     Ne1538    9.994   .     S
Ne1538     Na1539    9.997   .     S
Ne1538     Er1549    9.999   .     S
F1540     Na1542    9.997   .     S
F1540     Ne1541    9.994   .     S
Ne1541     Na1542    9.997   .     S
Ne1541     Er1560    9.999   .     S
F1543     Ce961    10.0   1_556     S
F1543     Na1545    9.997   .     S
F1543     Ne1544    9.994   .     S
Ne1544     Na1545    9.997   .     S
Ne1544     Er1554    9.999   .     S
B1546     Be1552    9.996   .     S
B1546     Be1557    9.996   .     S
B1546     V1650    9.998   .     S
B1547     Be1548    9.996   .     S
B1547     Be1559    9.996   1_556     S
B1547     V1649    9.998   .     S
Be1548     Be1559    9.997   1_556     S
Be1548     Er1549    9.997   .     S
Er1549     Er1550    9.99   .     S
Er1549     Ti1551    9.995   .     S
Er1550     Ti1551    9.995   .     S
Er1550     Be1552    9.997   .     S
Be1552     Be1557    9.997   .     S
Be1553     Er1554    9.997   .     S
Be1553     B1558    9.996   .     S
Be1553     Be1563    9.997   1_556     S
Er1554     Er1555    9.99   .     S
Er1554     Ti1556    9.995   .     S
Er1555     Ti1556    9.995   .     S
Er1555     Be1557    9.997   .     S
Er1555     Ne1565    9.999   .     S
B1558     Be1563    9.996   1_556     S
B1558     V1648    9.998   .     S
Be1559     B1547    9.996   1_554     S
Be1559     Be1548    9.997   1_554     S
Be1559     Er1560    9.997   .     S
Er1560     Er1561    9.99   .     S
Er1560     Ti1562    9.995   .     S
Er1561     Ti1562    9.995   .     S
Er1561     Be1563    9.997   .     S
Be1563     B1558    9.996   1_554     S
Be1563     Be1553    9.997   1_554     S
F1564     Na1566    9.997   .     S
F1564     Ne1565    9.994   .     S
Ne1565     Na1566    9.997   .     S
F1567     Na1569    9.997   .     S
F1567     Ne1568    9.994   .     S
Ne1568     Na1569    9.997   .     S
Ne1568     Er1596    9.999   .     S
F1570     Na1572    9.997   .     S
F1570     Ne1571    9.994   .     S
Ne1571     Na1572    9.997   .     S
Ne1571     Er1585    9.999   .     S
F1573     Na1575    9.997   .     S
F1573     Ne1574    9.994   .     S
Ne1574     Na1575    9.997   .     S
Ne1574     Er1597    9.999   .     S
F1576     Na1578    9.997   .     S
F1576     Ne1577    9.994   .     S
Ne1577     Na1578    9.997   .     S
Ne1577     Er1591    9.999   .     S
F1579     Ce706    10.0   1_556     S
F1579     Na1581    9.997   .     S
F1579     Ne1580    9.994   .     S
Ne1580     Na1581    9.997   .     S
Ne1580     Er1590    9.999   .     S
B1582     Be1595    9.996   1_556     S
B1582     Be1583    9.996   .     S
B1582     V1657    9.998   .     S
Be1583     Be1595    9.997   1_556     S
Be1583     Er1584    9.997   .     S
Er1584     Er1585    9.99   .     S
Er1584     Ti1586    9.995   .     S
Er1584     Ne1601    9.999   .     S
Er1585     Ti1586    9.995   .     S
Er1585     Be1587    9.997   .     S
Be1587     B1588    9.996   .     S
Be1587     Be1593    9.997   .     S
B1588     Be1593    9.996   .     S
B1588     V1659    9.998   .     S
Be1589     Er1590    9.997   .     S
Be1589     B1594    9.996   .     S
Be1589     Be1599    9.997   1_556     S
Er1590     Er1591    9.99   .     S
Er1590     Ti1592    9.995   .     S
Er1591     Ti1592    9.995   .     S
Er1591     Be1593    9.997   .     S
B1594     Be1599    9.996   1_556     S
B1594     V1658    9.998   .     S
Be1595     B1582    9.996   1_554     S
Be1595     Be1583    9.997   1_554     S
Be1595     Er1597    9.997   .     S
Er1596     Er1597    9.99   .     S
Er1596     Ti1598    9.995   .     S
Er1596     Be1599    9.997   .     S
Er1597     Ti1598    9.995   .     S
Be1599     B1594    9.996   1_554     S
Be1599     Be1589    9.997   1_554     S
F1600     Ce970    10.0   1_556     S
F1600     Na1602    9.997   .     S
F1600     Ne1601    9.994   .     S
Ne1601     Na1602    9.997   .     S
F1603     Na1605    9.997   .     S
F1603     Ne1604    9.994   .     S
Ne1604     Na1605    9.997   .     S
Ne1604     Er1626    9.999   .     S
F1606     Na1608    9.997   .     S
F1606     Ne1607    9.994   .     S
Ne1607     Na1608    9.997   .     S
Ne1607     Er1633    9.999   .     S
F1609     Na1611    9.997   .     S
F1609     Ne1610    9.994   .     S
Ne1610     Na1611    9.997   .     S
Ne1610     Er1619    9.999   .     S
F1612     Na1614    9.997   .     S
F1612     Ne1613    9.994   .     S
Ne1613     Na1614    9.997   .     S
Ne1613     Er1632    9.999   .     S
F1615     Na1617    9.997   .     S
F1615     Ne1616    9.994   .     S
Ne1616     Na1617    9.997   .     S
Ne1616     Er1627    9.999   .     S
Be1618     Er1619    9.997   .     S
Be1618     B1623    9.996   .     S
Be1618     Be1625    9.997   .     S
Er1619     Er1620    9.99   .     S
Er1619     Ti1621    9.995   .     S
Er1620     Ti1621    9.995   .     S
Er1620     Be1622    9.997   .     S
Er1620     Ne1637    9.999   .     S
Be1622     B1630    9.996   .     S
Be1622     Be1635    9.997   .     S
B1623     Be1625    9.996   .     S
B1623     V1645    9.998   .     S
B1624     Be1629    9.996   .     S
B1624     Be1631    9.996   .     S
B1624     V1646    9.998   .     S
Be1625     Er1627    9.997   .     S
Er1626     Er1627    9.99   .     S
Er1626     Ti1628    9.995   .     S
Er1626     Be1629    9.997   .     S
Er1627     Ti1628    9.995   .     S
Be1629     Be1631    9.997   .     S
B1630     Be1635    9.996   .     S
B1630     V1647    9.998   .     S
Be1631     Er1632    9.997   .     S
Er1632     Er1633    9.99   .     S
Er1632     Ti1634    9.995   .     S
Er1633     Ti1634    9.995   .     S
Er1633     Be1635    9.997   .     S
F1636     Na1638    9.997   .     S
F1636     Ne1637    9.994   .     S
Ne1637     Na1638    9.997   .     S
Li1639     Li1641    9.997   .     S
Li1639     Li1640    9.997   .     S
Li1639     V1647    10.0   .     S
Li1640     Li1641    9.997   .     S
Li1640     V1649    10.0   .     S
Li1641     V1658    10.0   .     S
V1642     V1643    9.994   .     S
V1642     V1644    9.994   .     S
V1642     Li1660    10.0   .     S
V1643     V1644    9.994   .     S
V1643     Li1652    10.0   .     S
V1644     Li1656    10.0   .     S
V1645     V1647    9.994   .     S
V1645     V1646    9.994   .     S
V1645     Li1661    10.0   .     S
V1646     V1647    9.994   .     S
V1646     Li1651    10.0   .     S
V1648     V1650    9.994   .     S
V1648     V1649    9.994   .     S
V1648     Li1655    10.0   .     S
V1649     V1650    9.994   .     S
V1650     Li1653    10.0   .     S
Li1651     Li1653    9.997   .     S
Li1651     Li1652    9.997   .     S
Li1652     Li1653    9.997   .     S
Li1654     Li1655    9.997   .     S
Li1654     Li1656    9.997   .     S
Li1654     V1657    10.0   .     S
Li1655     Li1656    9.997   .     S
V1657     V1659    9.994   .     S
V1657     V1658    9.994   .     S
V1658     V1659    9.994   .     S
V1659     Li1662    10.0   .     S
Li1660     Li1662    9.997   .     S
Li1660     Li1661    9.997   .     S
Li1661     Li1662    9.997   .     S
S1663     Ce1664    9.996   .     S
S1663     S1665    9.999   .     S
Ce1664     S1665    9.996   .     S
Ce1664     F1759    10.0   .     S
Ce1664     F2392    10.0   .     S
Ce1666     S1667    9.996   .     S
Ce1666     S1668    9.996   .     S
Ce1666     F1732    10.0   .     S
Ce1666     F2422    10.0   .     S
S1667     S1668    9.999   .     S
H1669     He1671    9.998   .     S
H1669     H1670    9.994   .     S
H1669     Na1737    10.001   .     S
H1669     Na1806    10.001   .     S
H1670     He1671    9.998   .     S
H1670     Na1728    10.001   .     S
H1670     Na1809    10.001   .     S
H1672     He1674    9.998   .     S
H1672     H1673    9.994   .     S
H1672     Na1692    10.001   .     S
H1672     Na1800    10.001   .     S
H1673     He1674    9.998   .     S
H1673     Na1695    10.001   .     S
H1673     Na1797    10.001   .     S
H1675     He1677    9.998   .     S
H1675     H1676    9.994   .     S
H1675     Na1689    10.001   .     S
H1675     Na1767    10.001   .     S
H1676     He1677    9.998   .     S
H1676     Na1722    10.001   .     S
H1676     Na1794    10.001   .     S
H1678     He1680    9.998   .     S
H1678     H1679    9.994   .     S
H1678     Na1734    10.001   .     S
H1678     Na1761    10.001   .     S
H1679     He1680    9.998   .     S
H1679     Na1725    10.001   .     S
H1679     Na1773    10.001   .     S
H1681     He1683    9.998   .     S
H1681     H1682    9.994   .     S
H1681     Na1701    10.001   .     S
H1681     Na1731    10.001   .     S
H1682     He1683    9.998   .     S
H1682     Na1698    10.001   .     S
H1682     Na1758    10.001   .     S
H1684     He1686    9.998   .     S
H1684     H1685    9.994   .     S
H1684     Na1770    10.001   .     S
H1684     Na1803    10.001   .     S
H1685     He1686    9.998   .     S
H1685     Na1764    10.001   .     S
H1685     Na1830    10.001   .     S
F1687     Na1689    9.997   .     S
F1687     Ne1688    9.994   .     S
F1687     Ce2257    10.0   .     S
Ne1688     Na1689    9.997   .     S
Ne1688     Er1710    9.999   .     S
F1690     Na1692    9.997   .     S
F1690     Ne1691    9.994   .     S
F1690     Ce1864    10.0   .     S
Ne1691     Na1692    9.997   .     S
Ne1691     Er1705    9.999   .     S
F1693     Na1695    9.997   .     S
F1693     Ne1694    9.994   .     S
Ne1694     Na1695    9.997   .     S
Ne1694     Er1704    9.999   .     S
F1696     Na1698    9.997   .     S
F1696     Ne1697    9.994   .     S
Ne1697     Na1698    9.997   .     S
Ne1697     Er1717    9.999   .     S
F1699     Na1701    9.997   .     S
F1699     Ne1700    9.994   .     S
F1699     Ce2248    10.0   .     S
Ne1700     Na1701    9.997   .     S
Ne1700     Er1716    9.999   .     S
B1702     Be1707    9.996   .     S
B1702     Be1708    9.996   .     S
B1702     V1842    9.998   .     S
Be1703     Er1705    9.997   .     S
Be1703     B1714    9.996   .     S
Be1703     Be1719    9.997   .     S
Er1704     Er1705    9.99   .     S
Er1704     Ti1706    9.995   .     S
Er1704     Be1707    9.997   .     S
Er1705     Ti1706    9.995   .     S
Be1707     Be1708    9.997   .     S
Be1708     Er1709    9.997   .     S
Er1709     Er1710    9.99   .     S
Er1709     Ti1711    9.995   .     S
Er1709     Ne1721    9.999   .     S
Er1710     Ti1711    9.995   .     S
Er1710     Be1712    9.997   .     S
Be1712     B1713    9.996   .     S
Be1712     Be1715    9.997   .     S
B1713     Be1715    9.996   .     S
B1713     V1841    9.998   .     S
B1714     Be1719    9.996   .     S
B1714     V1840    9.998   .     S
Be1715     Er1716    9.997   .     S
Er1716     Er1717    9.99   .     S
Er1716     Ti1718    9.995   .     S
Er1717     Ti1718    9.995   .     S
Er1717     Be1719    9.997   .     S
F1720     Na1722    9.997   .     S
F1720     Ne1721    9.994   .     S
Ne1721     Na1722    9.997   .     S
F1723     Na1725    9.997   .     S
F1723     Ne1724    9.994   .     S
Ne1724     Na1725    9.997   .     S
Ne1724     Er1739    9.999   .     S
F1726     Na1728    9.997   .     S
F1726     Ne1727    9.994   .     S
Ne1727     Na1728    9.997   .     S
Ne1727     Er1753    9.999   .     S
F1729     Na1731    9.997   .     S
F1729     Ne1730    9.994   .     S
Ne1730     Na1731    9.997   .     S
Ne1730     Er1747    9.999   .     S
F1732     Na1734    9.997   .     S
F1732     Ne1733    9.994   .     S
Ne1733     Na1734    9.997   .     S
Ne1733     Er1740    9.999   .     S
F1735     Na1737    9.997   .     S
F1735     Ne1736    9.994   .     S
F1735     Ce1855    10.0   .     S
Ne1736     Na1737    9.997   .     S
Ne1736     Er1752    9.999   .     S
Be1738     Er1740    9.997   .     S
Be1738     B1744    9.996   1_655     S
Be1738     Be1749    9.997   1_655     S
Er1739     Er1740    9.99   .     S
Er1739     Ti1741    9.995   .     S
Er1739     Be1742    9.997   .     S
Er1740     Ti1741    9.995   .     S
Be1742     B1750    9.996   1_655     S
Be1742     Be1755    9.997   1_655     S
B1743     Be1751    9.996   .     S
B1743     Be1745    9.996   .     S
B1743     V1850    9.998   .     S
B1744     Be1738    9.996   1_455     S
B1744     Be1749    9.996   .     S
B1744     V1849    9.998   .     S
Be1745     Be1751    9.997   .     S
Be1745     Er1746    9.997   .     S
Er1746     Er1747    9.99   .     S
Er1746     Ti1748    9.995   .     S
Er1746     Ne1757    9.999   .     S
Er1747     Ti1748    9.995   .     S
Er1747     Be1749    9.997   .     S
Be1749     Be1738    9.997   1_455     S
B1750     Be1755    9.996   .     S
B1750     Be1742    9.996   1_455     S
B1750     V1851    9.998   .     S
Be1751     Er1752    9.997   .     S
Er1752     Er1753    9.99   .     S
Er1752     Ti1754    9.995   .     S
Er1753     Ti1754    9.995   .     S
Er1753     Be1755    9.997   .     S
Be1755     Be1742    9.997   1_455     S
F1756     Na1758    9.997   .     S
F1756     Ne1757    9.994   .     S
Ne1757     Na1758    9.997   .     S
F1759     Na1761    9.997   .     S
F1759     Ne1760    9.994   .     S
Ne1760     Na1761    9.997   .     S
Ne1760     Er1776    9.999   .     S
F1762     Na1764    9.997   .     S
F1762     Ne1763    9.994   .     S
Ne1763     Na1764    9.997   .     S
Ne1763     Er1788    9.999   .     S
F1765     Na1767    9.997   .     S
F1765     Ne1766    9.994   .     S
Ne1766     Na1767    9.997   .     S
Ne1766     Er1783    9.999   .     S
F1768     Na1770    9.997   .     S
F1768     Ne1769    9.994   .     S
Ne1769     Na1770    9.997   .     S
Ne1769     Er1789    9.999   .     S
F1771     Na1773    9.997   .     S
F1771     Ne1772    9.994   .     S
Ne1772     Na1773    9.997   .     S
Ne1772     Er1775    9.999   .     S
Be1774     Er1775    9.997   .     S
Be1774     B1786    9.996   1_655     S
Be1774     Be1787    9.997   1_655     S
Er1775     Er1776    9.99   .     S
Er1775     Ti1777    9.995   .     S
Er1776     Ti1777    9.995   .     S
Er1776     Be1778    9.997   .     S
Be1778     B1780    9.996   1_655     S
Be1778     Be1785    9.997   1_655     S
B1779     Be1791    9.996   .     S
B1779     Be1781    9.996   .     S
B1779     V1846    9.998   .     S
B1780     Be1778    9.996   1_455     S
B1780     Be1785    9.996   .     S
B1780     V1848    9.998   .     S
Be1781     Be1791    9.997   .     S
Be1781     Er1782    9.997   .     S
Er1782     Er1783    9.99   .     S
Er1782     Ti1784    9.995   .     S
Er1782     Ne1793    9.999   .     S
Er1783     Ti1784    9.995   .     S
Er1783     Be1785    9.997   .     S
Be1785     Be1778    9.997   1_455     S
B1786     Be1787    9.996   .     S
B1786     Be1774    9.996   1_455     S
B1786     V1847    9.998   .     S
Be1787     Be1774    9.997   1_455     S
Be1787     Er1789    9.997   .     S
Er1788     Er1789    9.99   .     S
Er1788     Ti1790    9.995   .     S
Er1788     Be1791    9.997   .     S
Er1789     Ti1790    9.995   .     S
F1792     Na1794    9.997   .     S
F1792     Ne1793    9.994   .     S
Ne1793     Na1794    9.997   .     S
F1795     Na1797    9.997   .     S
F1795     Ne1796    9.994   .     S
Ne1796     Na1797    9.997   .     S
Ne1796     Er1813    9.999   .     S
F1798     Na1800    9.997   .     S
F1798     Ne1799    9.994   .     S
Ne1799     Na1800    9.997   .     S
Ne1799     Er1814    9.999   .     S
F1801     Na1803    9.997   .     S
F1801     Ne1802    9.994   .     S
Ne1802     Na1803    9.997   .     S
Ne1802     Er1824    9.999   .     S
F1804     Na1806    9.997   .     S
F1804     Ne1805    9.994   .     S
Ne1805     Na1806    9.997   .     S
Ne1805     Er1819    9.999   .     S
F1807     Na1809    9.997   .     S
F1807     Ne1808    9.994   .     S
Ne1808     Na1809    9.997   .     S
Ne1808     Er1818    9.999   .     S
B1810     Be1821    9.996   .     S
B1810     Be1816    9.996   .     S
B1810     V1834    9.998   .     S
B1811     Be1823    9.996   .     S
B1811     Be1812    9.996   .     S
B1811     V1835    9.998   .     S
Be1812     Be1823    9.997   .     S
Be1812     Er1813    9.997   .     S
Er1813     Er1814    9.99   .     S
Er1813     Ti1815    9.995   .     S
Er1814     Ti1815    9.995   .     S
Er1814     Be1816    9.997   .     S
Be1816     Be1821    9.997   .     S
Be1817     Er1818    9.997   .     S
Be1817     B1822    9.996   .     S
Be1817     Be1827    9.997   .     S
Er1818     Er1819    9.99   .     S
Er1818     Ti1820    9.995   .     S
Er1819     Ti1820    9.995   .     S
Er1819     Be1821    9.997   .     S
B1822     Be1827    9.996   .     S
B1822     V1836    9.998   .     S
Be1823     Er1825    9.997   .     S
Er1824     Er1825    9.99   .     S
Er1824     Ti1826    9.995   .     S
Er1824     Be1827    9.997   .     S
Er1825     Ti1826    9.995   .     S
Er1825     Ne1829    9.999   .     S
F1828     Na1830    9.997   .     S
F1828     Ne1829    9.994   .     S
Ne1829     Na1830    9.997   .     S
Li1831     Li1832    9.997   .     S
Li1831     Li1833    9.997   .     S
Li1831     V1840    10.0   .     S
Li1832     Li1833    9.997   .     S
Li1832     V1850    10.0   .     S
Li1833     V1834    10.0   .     S
V1834     V1836    9.994   .     S
V1834     V1835    9.994   .     S
V1835     V1836    9.994   .     S
V1835     Li1837    10.0   .     S
V1836     Li1845    10.0   .     S
Li1837     Li1839    9.997   .     S
Li1837     Li1838    9.997   .     S
Li1838     Li1839    9.997   .     S
Li1838     V1842    10.0   .     S
Li1839     V1846    10.0   .     S
V1840     V1841    9.994   .     S
V1840     V1842    9.994   .     S
V1841     V1842    9.994   .     S
V1841     Li1852    10.0   .     S
Li1843     Li1845    9.997   .     S
Li1843     Li1844    9.997   .     S
Li1843     V1851    10.0   .     S
Li1844     Li1845    9.997   .     S
Li1844     V1847    10.0   .     S
V1846     V1847    9.994   .     S
V1846     V1848    9.994   .     S
V1847     V1848    9.994   .     S
V1848     Li1854    10.0   .     S
V1849     V1850    9.994   .     S
V1849     V1851    9.994   .     S
V1849     Li1853    10.0   .     S
V1850     V1851    9.994   .     S
Li1852     Li1854    9.997   .     S
Li1852     Li1853    9.997   .     S
Li1853     Li1854    9.997   .     S
Ce1855     S1857    9.996   .     S
Ce1855     S1856    9.996   .     S
Ce1855     F2002    10.0   .     S
S1856     S1857    9.999   .     S
Ce1858     S1859    9.996   .     S
Ce1858     S1860    9.996   .     S
Ce1858     F2119    10.0   .     S
Ce1858     F1999    10.0   .     S
S1859     S1860    9.999   .     S
Ce1861     S1863    9.996   .     S
Ce1861     S1862    9.996   .     S
Ce1861     F2155    10.0   .     S
Ce1861     F1963    10.0   .     S
S1862     S1863    9.999   .     S
Ce1864     S1865    9.996   .     S
Ce1864     S1866    9.996   .     S
Ce1864     F1990    10.0   .     S
S1865     S1866    9.999   .     S
H1867     He1869    9.998   .     S
H1867     H1868    9.994   .     S
H1867     Na1893    10.001   .     S
H1867     Na1929    10.001   .     S
H1868     He1869    9.998   .     S
H1868     Na1887    10.001   .     S
H1868     Na1935    10.001   .     S
H1870     He1872    9.998   .     S
H1870     H1871    9.994   .     S
H1870     Na1956    10.001   .     S
H1870     Na2028    10.001   .     S
H1871     He1872    9.998   .     S
H1871     Na1932    10.001   .     S
H1871     Na2004    10.001   .     S
H1873     He1875    9.998   .     S
H1873     H1874    9.994   .     S
H1873     Na1920    10.001   .     S
H1873     Na1965    10.001   .     S
H1874     He1875    9.998   .     S
H1874     Na1890    10.001   .     S
H1874     Na1971    10.001   .     S
H1876     He1878    9.998   .     S
H1876     H1877    9.994   .     S
H1876     Na1959    10.001   .     S
H1876     Na1998    10.001   .     S
H1877     He1878    9.998   .     S
H1877     Na1962    10.001   .     S
H1877     Na1995    10.001   .     S
H1879     He1881    9.998   .     S
H1879     H1880    9.994   .     S
H1879     Na1899    10.001   .     S
H1879     Na2007    10.001   .     S
H1880     He1881    9.998   .     S
H1880     Na1896    10.001   .     S
H1880     Na2001    10.001   .     S
H1882     He1884    9.998   .     S
H1882     H1883    9.994   .     S
H1882     Na1926    10.001   .     S
H1882     Na1992    10.001   .     S
H1883     He1884    9.998   .     S
H1883     Na1923    10.001   .     S
H1883     Na1968    10.001   .     S
F1885     Na1887    9.997   .     S
F1885     Ne1886    9.994   .     S
Ne1886     Na1887    9.997   .     S
Ne1886     Er1914    9.999   .     S
F1888     Ce745    10.0   1_565     S
F1888     Na1890    9.997   .     S
F1888     Ne1889    9.994   .     S
Ne1889     Na1890    9.997   .     S
Ne1889     Er1902    9.999   .     S
F1891     Na1893    9.997   .     S
F1891     Ne1892    9.994   .     S
Ne1892     Na1893    9.997   .     S
Ne1892     Er1915    9.999   .     S
F1894     Na1896    9.997   .     S
F1894     Ne1895    9.994   .     S
Ne1895     Na1896    9.997   .     S
Ne1895     Er1909    9.999   .     S
F1897     Ce718    10.0   1_565     S
F1897     Na1899    9.997   .     S
F1897     Ne1898    9.994   .     S
Ne1898     Na1899    9.997   .     S
Ne1898     Er1908    9.999   .     S
B1900     Be1905    9.996   .     S
B1900     Be1917    9.996   1_565     S
B1900     V2039    9.998   .     S
Be1901     Er1903    9.997   .     S
Be1901     B1906    9.996   .     S
Be1901     Be1911    9.997   .     S
Er1902     Er1903    9.99   .     S
Er1902     Ti1904    9.995   .     S
Er1902     Be1905    9.997   .     S
Er1903     Ti1904    9.995   .     S
Er1903     Ne1919    9.999   .     S
Be1905     Be1917    9.997   1_565     S
B1906     Be1911    9.996   .     S
B1906     V2040    9.998   .     S
Be1907     Er1908    9.997   .     S
Be1907     B1912    9.996   .     S
Be1907     Be1913    9.997   1_565     S
Er1908     Er1909    9.99   .     S
Er1908     Ti1910    9.995   .     S
Er1909     Ti1910    9.995   .     S
Er1909     Be1911    9.997   .     S
B1912     Be1913    9.996   1_565     S
B1912     V2038    9.998   .     S
Be1913     B1912    9.996   1_545     S
Be1913     Be1907    9.997   1_545     S
Be1913     Er1915    9.997   .     S
Er1914     Er1915    9.99   .     S
Er1914     Ti1916    9.995   .     S
Er1914     Be1917    9.997   .     S
Er1915     Ti1916    9.995   .     S
Be1917     B1900    9.996   1_545     S
Be1917     Be1905    9.997   1_545     S
F1918     Na1920    9.997   .     S
F1918     Ne1919    9.994   .     S
Ne1919     Na1920    9.997   .     S
F1921     Ce964    10.0   1_565     S
F1921     Na1923    9.997   .     S
F1921     Ne1922    9.994   .     S
Ne1922     Na1923    9.997   .     S
Ne1922     Er1950    9.999   .     S
F1924     Na1926    9.997   .     S
F1924     Ne1925    9.994   .     S
Ne1925     Na1926    9.997   .     S
Ne1925     Er1951    9.999   .     S
F1927     Na1929    9.997   .     S
F1927     Ne1928    9.994   .     S
Ne1928     Na1929    9.997   .     S
Ne1928     Er1944    9.999   .     S
F1930     Na1932    9.997   .     S
F1930     Ne1931    9.994   .     S
Ne1931     Na1932    9.997   .     S
Ne1931     Er1940    9.999   .     S
F1933     Na1935    9.997   .     S
F1933     Ne1934    9.994   .     S
Ne1934     Na1935    9.997   .     S
Ne1934     Er1945    9.999   .     S
B1936     Be1938    9.996   .     S
B1936     Be1947    9.996   1_565     S
B1936     V2048    9.998   .     S
B1937     Be1942    9.996   .     S
B1937     Be1949    9.996   .     S
B1937     V2049    9.998   .     S
Be1938     Be1947    9.997   1_565     S
Be1938     Er1939    9.997   .     S
Er1939     Er1940    9.99   .     S
Er1939     Ti1941    9.995   .     S
Er1939     Ne1955    9.999   .     S
Er1940     Ti1941    9.995   .     S
Er1940     Be1942    9.997   .     S
Be1942     Be1949    9.997   .     S
Be1943     Er1945    9.997   .     S
Be1943     B1948    9.996   1_545     S
Be1943     Be1953    9.997   1_545     S
Er1944     Er1945    9.99   .     S
Er1944     Ti1946    9.995   .     S
Er1944     Be1947    9.997   .     S
Er1945     Ti1946    9.995   .     S
Be1947     B1936    9.996   1_545     S
Be1947     Be1938    9.997   1_545     S
B1948     Be1953    9.996   .     S
B1948     Be1943    9.996   1_565     S
B1948     V2047    9.998   .     S
Be1949     Er1951    9.997   .     S
Er1950     Er1951    9.99   .     S
Er1950     Ti1952    9.995   .     S
Er1950     Be1953    9.997   .     S
Er1951     Ti1952    9.995   .     S
Be1953     Be1943    9.997   1_565     S
F1954     Ce712    10.0   1_565     S
F1954     Na1956    9.997   .     S
F1954     Ne1955    9.994   .     S
Ne1955     Na1956    9.997   .     S
F1957     Na1959    9.997   .     S
F1957     Ne1958    9.994   .     S
Ne1958     Na1959    9.997   .     S
Ne1958     Er1976    9.999   .     S
F1960     Na1962    9.997   .     S
F1960     Ne1961    9.994   .     S
Ne1961     Na1962    9.997   .     S
Ne1961     Er1975    9.999   .     S
F1963     Na1965    9.997   .     S
F1963     Ne1964    9.994   .     S
Ne1964     Na1965    9.997   .     S
Ne1964     Er1980    9.999   .     S
F1966     Na1968    9.997   .     S
F1966     Ne1967    9.994   .     S
Ne1967     Na1968    9.997   .     S
Ne1967     Er1987    9.999   .     S
F1969     Na1971    9.997   .     S
F1969     Ne1970    9.994   .     S
Ne1970     Na1971    9.997   .     S
Ne1970     Er1981    9.999   .     S
B1972     Be1985    9.996   .     S
B1972     Be1974    9.996   .     S
B1972     V2032    9.998   .     S
B1973     Be1978    9.996   .     S
B1973     Be1983    9.996   .     S
B1973     V2033    9.998   .     S
Be1974     Be1985    9.997   .     S
Be1974     Er1976    9.997   .     S
Er1975     Er1976    9.99   .     S
Er1975     Ti1977    9.995   .     S
Er1975     Be1978    9.997   .     S
Er1976     Ti1977    9.995   .     S
Be1978     Be1983    9.997   .     S
Be1979     Er1981    9.997   .     S
Be1979     B1984    9.996   .     S
Be1979     Be1989    9.997   .     S
Er1980     Er1981    9.99   .     S
Er1980     Ti1982    9.995   .     S
Er1980     Be1983    9.997   .     S
Er1981     Ti1982    9.995   .     S
B1984     Be1989    9.996   .     S
B1984     V2034    9.998   .     S
Be1985     Er1986    9.997   .     S
Er1986     Er1987    9.99   .     S
Er1986     Ti1988    9.995   .     S
Er1986     Ne1991    9.999   .     S
Er1987     Ti1988    9.995   .     S
Er1987     Be1989    9.997   .     S
F1990     Na1992    9.997   .     S
F1990     Ne1991    9.994   .     S
Ne1991     Na1992    9.997   .     S
F1993     Na1995    9.997   .     S
F1993     Ne1994    9.994   .     S
Ne1994     Na1995    9.997   .     S
Ne1994     Er2016    9.999   .     S
F1996     Na1998    9.997   .     S
F1996     Ne1997    9.994   .     S
Ne1997     Na1998    9.997   .     S
Ne1997     Er2017    9.999   .     S
F1999     Na2001    9.997   .     S
F1999     Ne2000    9.994   .     S
Ne2000     Na2001    9.997   .     S
Ne2000     Er2022    9.999   .     S
F2002     Na2004    9.997   .     S
F2002     Ne2003    9.994   .     S
Ne2003     Na2004    9.997   .     S
Ne2003     Er2010    9.999   .     S
F2005     Na2007    9.997   .     S
F2005     Ne2006    9.994   .     S
Ne2006     Na2007    9.997   .     S
Ne2006     Er2023    9.999   .     S
B2008     Be2009    9.996   .     S
B2008     Be2019    9.996   .     S
B2008     V2030    9.998   .     S
Be2009     Be2019    9.997   .     S
Be2009     Er2010    9.997   .     S
Er2010     Er2011    9.99   .     S
Er2010     Ti2012    9.995   .     S
Er2011     Ti2012    9.995   .     S
Er2011     Be2013    9.997   .     S
Er2011     Ne2027    9.999   .     S
Be2013     B2020    9.996   .     S
Be2013     Be2021    9.997   .     S
B2014     Be2015    9.996   .     S
B2014     Be2025    9.996   .     S
B2014     V2029    9.998   .     S
Be2015     Be2025    9.997   .     S
Be2015     Er2016    9.997   .     S
Er2016     Er2017    9.99   .     S
Er2016     Ti2018    9.995   .     S
Er2017     Ti2018    9.995   .     S
Er2017     Be2019    9.997   .     S
B2020     Be2021    9.996   .     S
B2020     V2031    9.998   .     S
Be2021     Er2023    9.997   .     S
Er2022     Er2023    9.99   .     S
Er2022     Ti2024    9.995   .     S
Er2022     Be2025    9.997   .     S
Er2023     Ti2024    9.995   .     S
F2026     Na2028    9.997   .     S
F2026     Ne2027    9.994   .     S
Ne2027     Na2028    9.997   .     S
V2029     V2031    9.994   .     S
V2029     V2030    9.994   .     S
V2029     Li2041    10.0   .     S
V2030     V2031    9.994   .     S
V2030     Li2050    10.0   .     S
V2031     Li2044    10.0   .     S
V2032     V2034    9.994   .     S
V2032     V2033    9.994   .     S
V2032     Li2051    10.0   .     S
V2033     V2034    9.994   .     S
V2033     Li2042    10.0   .     S
V2034     Li2037    10.0   .     S
Li2035     Li2036    9.997   .     S
Li2035     Li2037    9.997   .     S
Li2035     V2039    10.0   .     S
Li2036     Li2037    9.997   .     S
Li2036     V2047    10.0   .     S
V2038     V2040    9.994   .     S
V2038     V2039    9.994   .     S
V2038     Li2046    10.0   .     S
V2039     V2040    9.994   .     S
V2040     Li2043    10.0   .     S
Li2041     Li2043    9.997   .     S
Li2041     Li2042    9.997   .     S
Li2042     Li2043    9.997   .     S
Li2044     Li2045    9.997   .     S
Li2044     Li2046    9.997   .     S
Li2045     Li2046    9.997   .     S
Li2045     V2048    10.0   .     S
V2047     V2049    9.994   .     S
V2047     V2048    9.994   .     S
V2048     V2049    9.994   .     S
V2049     Li2052    10.0   .     S
Li2050     Li2052    9.997   .     S
Li2050     Li2051    9.997   .     S
Li2051     Li2052    9.997   .     S
S2053     Ce2054    9.996   .     S
S2053     S2055    9.999   .     S
Ce2054     S2055    9.996   .     S
Ce2054     F2116    10.0   .     S
Ce2054     F2398    10.0   .     S
Ce2056     S2057    9.996   .     S
Ce2056     S2058    9.996   .     S
Ce2056     F2194    10.0   .     S
Ce2056     F2395    10.0   .     S
S2057     S2058    9.999   .     S
H2059     He2061    9.998   .     S
H2059     H2060    9.994   .     S
H2059     Na2088    10.001   .     S
H2059     Na2220    10.001   .     S
H2060     He2061    9.998   .     S
H2060     Na2112    10.001   .     S
H2060     Na2190    10.001   .     S
H2062     He2064    9.998   .     S
H2062     H2063    9.994   .     S
H2062     Na2148    10.001   .     S
H2062     Na2184    10.001   .     S
H2063     He2064    9.998   .     S
H2063     Na2124    10.001   .     S
H2063     Na2160    10.001   .     S
H2065     He2067    9.998   .     S
H2065     H2066    9.994   .     S
H2065     Na2118    10.001   .     S
H2065     Na2196    10.001   .     S
H2066     He2067    9.998   .     S
H2066     Na2115    10.001   .     S
H2066     Na2187    10.001   .     S
H2068     He2070    9.998   .     S
H2068     H2069    9.994   .     S
H2068     Na2082    10.001   .     S
H2068     Na2157    10.001   .     S
H2069     He2070    9.998   .     S
H2069     Na2079    10.001   .     S
H2069     Na2151    10.001   .     S
H2071     He2073    9.998   .     S
H2071     H2072    9.994   .     S
H2071     Na2163    10.001   .     S
H2071     Na2193    10.001   .     S
H2072     He2073    9.998   .     S
H2072     Na2154    10.001   .     S
H2072     Na2199    10.001   .     S
H2074     He2076    9.998   .     S
H2074     H2075    9.994   .     S
H2074     Na2091    10.001   .     S
H2074     Na2121    10.001   .     S
H2075     He2076    9.998   .     S
H2075     Na2085    10.001   .     S
H2075     Na2127    10.001   .     S
F2077     Na2079    9.997   .     S
F2077     Ne2078    9.994   .     S
Ne2078     Na2079    9.997   .     S
Ne2078     Er2100    9.999   .     S
F2080     Na2082    9.997   .     S
F2080     Ne2081    9.994   .     S
Ne2081     Na2082    9.997   .     S
Ne2081     Er2101    9.999   .     S
F2083     Na2085    9.997   .     S
F2083     Ne2084    9.994   .     S
Ne2084     Na2085    9.997   .     S
Ne2084     Er2094    9.999   .     S
F2086     Na2088    9.997   .     S
F2086     Ne2087    9.994   .     S
Ne2087     Na2088    9.997   .     S
Ne2087     Er2107    9.999   .     S
F2089     Na2091    9.997   .     S
F2089     Ne2090    9.994   .     S
Ne2090     Na2091    9.997   .     S
Ne2090     Er2095    9.999   .     S
B2092     Be2105    9.996   .     S
B2092     Be2097    9.996   .     S
B2092     V2230    9.998   .     S
Be2093     Er2095    9.997   .     S
Be2093     B2098    9.996   .     S
Be2093     Be2099    9.997   .     S
Er2094     Er2095    9.99   .     S
Er2094     Ti2096    9.995   .     S
Er2094     Be2097    9.997   .     S
Er2095     Ti2096    9.995   .     S
Be2097     Be2105    9.997   .     S
B2098     Be2099    9.996   .     S
B2098     V2231    9.998   .     S
Be2099     Er2101    9.997   .     S
Er2100     Er2101    9.99   .     S
Er2100     Ti2102    9.995   .     S
Er2100     Be2103    9.997   .     S
Er2101     Ti2102    9.995   .     S
Be2103     B2104    9.996   .     S
Be2103     Be2109    9.997   .     S
B2104     Be2109    9.996   .     S
B2104     V2232    9.998   .     S
Be2105     Er2106    9.997   .     S
Er2106     Er2107    9.99   .     S
Er2106     Ti2108    9.995   .     S
Er2106     Ne2111    9.999   .     S
Er2107     Ti2108    9.995   .     S
Er2107     Be2109    9.997   .     S
F2110     Na2112    9.997   .     S
F2110     Ne2111    9.994   .     S
Ne2111     Na2112    9.997   .     S
F2113     Na2115    9.997   .     S
F2113     Ne2114    9.994   .     S
Ne2114     Na2115    9.997   .     S
Ne2114     Er2129    9.999   .     S
F2116     Na2118    9.997   .     S
F2116     Ne2117    9.994   .     S
Ne2117     Na2118    9.997   .     S
Ne2117     Er2130    9.999   .     S
F2119     Na2121    9.997   .     S
F2119     Ne2120    9.994   .     S
Ne2120     Na2121    9.997   .     S
Ne2120     Er2142    9.999   .     S
F2122     Na2124    9.997   .     S
F2122     Ne2123    9.994   .     S
Ne2123     Na2124    9.997   .     S
Ne2123     Er2137    9.999   .     S
F2125     Na2127    9.997   .     S
F2125     Ne2126    9.994   .     S
Ne2126     Na2127    9.997   .     S
Ne2126     Er2143    9.999   .     S
Be2128     Er2129    9.997   .     S
Be2128     B2140    9.996   1_556     S
Be2128     Be2141    9.997   1_556     S
Er2129     Er2130    9.99   .     S
Er2129     Ti2131    9.995   .     S
Er2130     Ti2131    9.995   .     S
Er2130     Be2132    9.997   .     S
Be2132     B2134    9.996   1_556     S
Be2132     Be2139    9.997   1_556     S
B2133     Be2145    9.996   .     S
B2133     Be2135    9.996   .     S
B2133     V2239    9.998   .     S
B2134     Be2132    9.996   1_554     S
B2134     Be2139    9.996   .     S
B2134     V2241    9.998   .     S
Be2135     Be2145    9.997   .     S
Be2135     Er2136    9.997   .     S
Er2136     Er2137    9.99   .     S
Er2136     Ti2138    9.995   .     S
Er2136     Ne2147    9.999   .     S
Er2137     Ti2138    9.995   .     S
Er2137     Be2139    9.997   .     S
Be2139     Be2132    9.997   1_554     S
B2140     Be2141    9.996   .     S
B2140     Be2128    9.996   1_554     S
B2140     V2240    9.998   .     S
Be2141     Be2128    9.997   1_554     S
Be2141     Er2143    9.997   .     S
Er2142     Er2143    9.99   .     S
Er2142     Ti2144    9.995   .     S
Er2142     Be2145    9.997   .     S
Er2143     Ti2144    9.995   .     S
F2146     Na2148    9.997   .     S
F2146     Ne2147    9.994   .     S
Ne2147     Na2148    9.997   .     S
F2149     Na2151    9.997   .     S
F2149     Ne2150    9.994   .     S
Ne2150     Na2151    9.997   .     S
Ne2150     Er2167    9.999   .     S
F2152     Na2154    9.997   .     S
F2152     Ne2153    9.994   .     S
Ne2153     Na2154    9.997   .     S
Ne2153     Er2178    9.999   .     S
F2155     Na2157    9.997   .     S
F2155     Ne2156    9.994   .     S
Ne2156     Na2157    9.997   .     S
Ne2156     Er2166    9.999   .     S
F2158     Na2160    9.997   .     S
F2158     Ne2159    9.994   .     S
F2158     Ce2260    10.0   .     S
Ne2159     Na2160    9.997   .     S
Ne2159     Er2172    9.999   .     S
F2161     Na2163    9.997   .     S
F2161     Ne2162    9.994   .     S
F2161     Ce2251    10.0   .     S
Ne2162     Na2163    9.997   .     S
Ne2162     Er2179    9.999   .     S
B2164     Be2170    9.996   .     S
B2164     Be2165    9.996   .     S
B2164     V2222    9.998   .     S
Be2165     Be2170    9.997   .     S
Be2165     Er2166    9.997   .     S
Er2166     Er2167    9.99   .     S
Er2166     Ti2168    9.995   .     S
Er2167     Ti2168    9.995   .     S
Er2167     Be2169    9.997   .     S
Be2169     B2176    9.996   .     S
Be2169     Be2181    9.997   .     S
Be2170     Er2171    9.997   .     S
Er2171     Er2172    9.99   .     S
Er2171     Ti2173    9.995   .     S
Er2171     Ne2183    9.999   .     S
Er2172     Ti2173    9.995   .     S
Er2172     Be2174    9.997   .     S
Be2174     B2175    9.996   .     S
Be2174     Be2177    9.997   .     S
B2175     Be2177    9.996   .     S
B2175     V2223    9.998   .     S
B2176     Be2181    9.996   .     S
B2176     V2221    9.998   .     S
Be2177     Er2179    9.997   .     S
Er2178     Er2179    9.99   .     S
Er2178     Ti2180    9.995   .     S
Er2178     Be2181    9.997   .     S
Er2179     Ti2180    9.995   .     S
F2182     Na2184    9.997   .     S
F2182     Ne2183    9.994   .     S
Ne2183     Na2184    9.997   .     S
F2185     Na2187    9.997   .     S
F2185     Ne2186    9.994   .     S
Ne2186     Na2187    9.997   .     S
Ne2186     Er2208    9.999   .     S
F2188     Na2190    9.997   .     S
F2188     Ne2189    9.994   .     S
Ne2189     Na2190    9.997   .     S
Ne2189     Er2215    9.999   .     S
F2191     Na2193    9.997   .     S
F2191     Ne2192    9.994   .     S
Ne2192     Na2193    9.997   .     S
Ne2192     Er2204    9.999   .     S
F2194     Na2196    9.997   .     S
F2194     Ne2195    9.994   .     S
Ne2195     Na2196    9.997   .     S
Ne2195     Er2209    9.999   .     S
F2197     Na2199    9.997   .     S
F2197     Ne2198    9.994   .     S
Ne2198     Na2199    9.997   .     S
Ne2198     Er2203    9.999   .     S
B2200     Be2207    9.996   1_554     S
B2200     Be2206    9.996   .     S
B2200     V2237    9.998   .     S
B2201     Be2213    9.996   .     S
B2201     Be2202    9.996   .     S
B2201     V2236    9.998   .     S
Be2202     Be2213    9.997   .     S
Be2202     Er2203    9.997   .     S
Er2203     Er2204    9.99   .     S
Er2203     Ti2205    9.995   .     S
Er2204     Ti2205    9.995   .     S
Er2204     Be2206    9.997   .     S
Be2206     Be2207    9.997   1_554     S
Be2207     B2200    9.996   1_556     S
Be2207     Be2206    9.997   1_556     S
Be2207     Er2209    9.997   .     S
Er2208     Er2209    9.99   .     S
Er2208     Ti2210    9.995   .     S
Er2208     Be2211    9.997   .     S
Er2209     Ti2210    9.995   .     S
Be2211     B2212    9.996   1_556     S
Be2211     Be2217    9.997   1_556     S
B2212     Be2217    9.996   .     S
B2212     Be2211    9.996   1_554     S
B2212     V2238    9.998   .     S
Be2213     Er2214    9.997   .     S
Er2214     Er2215    9.99   .     S
Er2214     Ti2216    9.995   .     S
Er2214     Ne2219    9.999   .     S
Er2215     Ti2216    9.995   .     S
Er2215     Be2217    9.997   .     S
Be2217     Be2211    9.997   1_554     S
F2218     Na2220    9.997   .     S
F2218     Ne2219    9.994   .     S
Ne2219     Na2220    9.997   .     S
V2221     V2222    9.994   .     S
V2221     V2223    9.994   .     S
V2221     Li2226    10.0   .     S
V2222     V2223    9.994   .     S
V2222     Li2233    10.0   .     S
V2223     Li2242    10.0   .     S
Li2224     Li2226    9.997   .     S
Li2224     Li2225    9.997   .     S
Li2224     V2232    10.0   .     S
Li2225     Li2226    9.997   .     S
Li2225     V2236    10.0   .     S
Li2227     Li2229    9.997   .     S
Li2227     Li2228    9.997   .     S
Li2227     V2240    10.0   .     S
Li2228     Li2229    9.997   .     S
Li2228     V2230    10.0   .     S
Li2229     V2238    10.0   .     S
V2230     V2232    9.994   .     S
V2230     V2231    9.994   .     S
V2231     V2232    9.994   .     S
V2231     Li2234    10.0   .     S
Li2233     Li2234    9.997   .     S
Li2233     Li2235    9.997   .     S
Li2234     Li2235    9.997   .     S
Li2235     V2239    10.0   .     S
V2236     V2237    9.994   .     S
V2236     V2238    9.994   .     S
V2237     V2238    9.994   .     S
V2237     Li2244    10.0   .     S
V2239     V2241    9.994   .     S
V2239     V2240    9.994   .     S
V2240     V2241    9.994   .     S
V2241     Li2243    10.0   .     S
Li2242     Li2243    9.997   .     S
Li2242     Li2244    9.997   .     S
Li2243     Li2244    9.997   .     S
Ce2245     S2247    9.996   .     S
Ce2245     S2246    9.996   .     S
Ce2245     F2353    10.0   .     S
S2246     S2247    9.999   .     S
Ce2248     S2250    9.996   .     S
Ce2248     S2249    9.996   .     S
Ce2248     F2281    10.0   .     S
S2249     S2250    9.999   .     S
Ce2251     S2253    9.996   .     S
Ce2251     S2252    9.996   .     S
Ce2251     F2320    10.0   .     S
S2252     S2253    9.999   .     S
Ce2254     S2256    9.996   .     S
Ce2254     S2255    9.996   .     S
Ce2254     F2293    10.0   .     S
S2255     S2256    9.999   .     S
Ce2257     S2259    9.996   .     S
Ce2257     S2258    9.996   .     S
Ce2257     F2329    10.0   .     S
S2258     S2259    9.999   .     S
Ce2260     S2262    9.996   .     S
Ce2260     S2261    9.996   .     S
Ce2260     F2365    10.0   .     S
S2261     S2262    9.999   .     S
H2263     He2265    9.998   .     S
H2263     H2264    9.994   .     S
H2263     Na2283    10.001   .     S
H2263     Na2331    10.001   .     S
H2264     He2265    9.998   .     S
H2264     Na2316    10.001   .     S
H2264     Na2319    10.001   .     S
H2266     He2268    9.998   .     S
H2266     H2267    9.994   .     S
H2266     Na2295    10.001   .     S
H2266     Na2355    10.001   .     S
H2267     He2268    9.998   .     S
H2267     Na2286    10.001   .     S
H2267     Na2388    10.001   .     S
H2269     He2271    9.998   .     S
H2269     H2270    9.994   .     S
H2269     Na2322    10.001   .     S
H2269     Na2367    10.001   .     S
H2270     He2271    9.998   .     S
H2270     Na2352    10.001   .     S
H2270     Na2358    10.001   .     S
H2272     He2274    9.998   .     S
H2272     H2273    9.994   .     S
H2272     Na2364    10.001   .     S
H2272     Na2403    10.001   .     S
H2273     He2274    9.998   .     S
H2273     Na2361    10.001   .     S
H2273     Na2400    10.001   .     S
H2275     He2277    9.998   .     S
H2275     H2276    9.994   .     S
H2275     Na2289    10.001   .     S
H2275     Na2424    10.001   .     S
H2276     He2277    9.998   .     S
H2276     Na2292    10.001   .     S
H2276     Na2391    10.001   .     S
H2278     He2280    9.998   .     S
H2278     H2279    9.994   .     S
H2278     Na2325    10.001   .     S
H2278     Na2397    10.001   .     S
H2279     He2280    9.998   .     S
H2279     Na2328    10.001   .     S
H2279     Na2394    10.001   .     S
F2281     Na2283    9.997   .     S
F2281     Ne2282    9.994   .     S
Ne2282     Na2283    9.997   .     S
Ne2282     Er2305    9.999   .     S
F2284     Ce770    10.0   1_655     S
F2284     Na2286    9.997   .     S
F2284     Ne2285    9.994   .     S
Ne2285     Na2286    9.997   .     S
Ne2285     Er2310    9.999   .     S
F2287     Ce685    10.0   1_655     S
F2287     Na2289    9.997   .     S
F2287     Ne2288    9.994   .     S
Ne2288     Na2289    9.997   .     S
Ne2288     Er2300    9.999   .     S
F2290     Ce691    10.0   1_565     S
F2290     Na2292    9.997   .     S
F2290     Ne2291    9.994   .     S
Ne2291     Na2292    9.997   .     S
Ne2291     Er2299    9.999   .     S
F2293     Na2295    9.997   .     S
F2293     Ne2294    9.994   .     S
Ne2294     Na2295    9.997   .     S
Ne2294     Er2311    9.999   .     S
B2296     Be2298    9.996   .     S
B2296     Be2307    9.996   1_655     S
B2296     V2442    9.998   .     S
B2297     Be2302    9.996   .     S
B2297     Be2309    9.996   1_565     S
B2297     V2440    9.998   .     S
Be2298     Be2307    9.997   1_655     S
Be2298     Er2300    9.997   .     S
Er2299     Er2300    9.99   .     S
Er2299     Ti2301    9.995   .     S
Er2299     Be2302    9.997   .     S
Er2300     Ti2301    9.995   .     S
Be2302     Be2309    9.997   1_565     S
Be2303     Er2304    9.997   .     S
Be2303     B2308    9.996   1_455     S
Be2303     Be2313    9.997   1_465     S
Er2304     Er2305    9.99   .     S
Er2304     Ti2306    9.995   .     S
Er2304     Ne2315    9.999   .     S
Er2305     Ti2306    9.995   .     S
Er2305     Be2307    9.997   .     S
Be2307     B2296    9.996   1_455     S
Be2307     Be2298    9.997   1_455     S
B2308     Be2303    9.996   1_655     S
B2308     Be2313    9.996   1_565     S
B2308     V2441    9.998   .     S
Be2309     B2297    9.996   1_545     S
Be2309     Be2302    9.997   1_545     S
Be2309     Er2311    9.997   .     S
Er2310     Er2311    9.99   .     S
Er2310     Ti2312    9.995   .     S
Er2310     Be2313    9.997   .     S
Er2311     Ti2312    9.995   .     S
Be2313     B2308    9.996   1_545     S
Be2313     Be2303    9.997   1_645     S
F2314     Ce757    10.0   1_565     S
F2314     Na2316    9.997   .     S
F2314     Ne2315    9.994   .     S
Ne2315     Na2316    9.997   .     S
F2317     Ce767    10.0   1_556     S
F2317     Na2319    9.997   .     S
F2317     Ne2318    9.994   .     S
Ne2318     Na2319    9.997   .     S
Ne2318     Er2334    9.999   .     S
F2320     Na2322    9.997   .     S
F2320     Ne2321    9.994   .     S
Ne2321     Na2322    9.997   .     S
Ne2321     Er2340    9.999   .     S
F2323     Ce694    10.0   1_556     S
F2323     Na2325    9.997   .     S
F2323     Ne2324    9.994   .     S
Ne2324     Na2325    9.997   .     S
Ne2324     Er2347    9.999   .     S
F2326     Ce688    10.0   1_655     S
F2326     Na2328    9.997   .     S
F2326     Ne2327    9.994   .     S
Ne2327     Na2328    9.997   .     S
Ne2327     Er2346    9.999   .     S
F2329     Na2331    9.997   .     S
F2329     Ne2330    9.994   .     S
Ne2330     Na2331    9.997   .     S
Ne2330     Er2335    9.999   .     S
B2332     Be2338    9.996   1_556     S
B2332     Be2337    9.996   1_655     S
B2332     V2432    9.998   .     S
Be2333     Er2335    9.997   .     S
Be2333     B2344    9.996   1_455     S
Be2333     Be2349    9.997   1_455     S
Er2334     Er2335    9.99   .     S
Er2334     Ti2336    9.995   .     S
Er2334     Be2337    9.997   .     S
Er2335     Ti2336    9.995   .     S
Be2337     B2332    9.996   1_455     S
Be2337     Be2338    9.997   1_456     S
Be2338     B2332    9.996   1_554     S
Be2338     Be2337    9.997   1_654     S
Be2338     Er2339    9.997   .     S
Er2339     Er2340    9.99   .     S
Er2339     Ti2341    9.995   .     S
Er2339     Ne2351    9.999   .     S
Er2340     Ti2341    9.995   .     S
Er2340     Be2342    9.997   .     S
Be2342     B2343    9.996   1_554     S
Be2342     Be2345    9.997   1_554     S
B2343     Be2345    9.996   .     S
B2343     Be2342    9.996   1_556     S
B2343     V2431    9.998   .     S
B2344     Be2349    9.996   .     S
B2344     Be2333    9.996   1_655     S
B2344     V2433    9.998   .     S
Be2345     Be2342    9.997   1_556     S
Be2345     Er2347    9.997   .     S
Er2346     Er2347    9.99   .     S
Er2346     Ti2348    9.995   .     S
Er2346     Be2349    9.997   .     S
Er2347     Ti2348    9.995   .     S
Be2349     Be2333    9.997   1_655     S
F2350     Ce763    10.0   1_655     S
F2350     Na2352    9.997   .     S
F2350     Ne2351    9.994   .     S
Ne2351     Na2352    9.997   .     S
F2353     Na2355    9.997   .     S
F2353     Ne2354    9.994   .     S
Ne2354     Na2355    9.997   .     S
Ne2354     Er2376    9.999   .     S
F2356     Ce760    10.0   1_565     S
F2356     Na2358    9.997   .     S
F2356     Ne2357    9.994   .     S
Ne2357     Na2358    9.997   .     S
Ne2357     Er2370    9.999   .     S
F2359     Ce679    10.0   1_556     S
F2359     Na2361    9.997   .     S
F2359     Ne2360    9.994   .     S
Ne2360     Na2361    9.997   .     S
Ne2360     Er2382    9.999   .     S
F2362     Ce682    10.0   1_565     S
F2362     Na2364    9.997   .     S
F2362     Ne2363    9.994   .     S
Ne2363     Na2364    9.997   .     S
Ne2363     Er2383    9.999   .     S
F2365     Na2367    9.997   .     S
F2365     Ne2366    9.994   .     S
Ne2366     Na2367    9.997   .     S
Ne2366     Er2371    9.999   .     S
B2368     Be2373    9.996   1_556     S
B2368     Be2374    9.996   1_565     S
B2368     V2445    9.998   .     S
Be2369     Er2371    9.997   .     S
Be2369     B2380    9.996   1_554     S
Be2369     Be2385    9.997   1_554     S
Er2370     Er2371    9.99   .     S
Er2370     Ti2372    9.995   .     S
Er2370     Be2373    9.997   .     S
Er2371     Ti2372    9.995   .     S
Be2373     B2368    9.996   1_554     S
Be2373     Be2374    9.997   1_564     S
Be2374     B2368    9.996   1_545     S
Be2374     Be2373    9.997   1_546     S
Be2374     Er2375    9.997   .     S
Er2375     Er2376    9.99   .     S
Er2375     Ti2377    9.995   .     S
Er2375     Ne2387    9.999   .     S
Er2376     Ti2377    9.995   .     S
Er2376     Be2378    9.997   .     S
Be2378     B2379    9.996   1_545     S
Be2378     Be2381    9.997   1_545     S
B2379     Be2381    9.996   .     S
B2379     Be2378    9.996   1_565     S
B2379     V2444    9.998   .     S
B2380     Be2385    9.996   .     S
B2380     Be2369    9.996   1_556     S
B2380     V2443    9.998   .     S
Be2381     Be2378    9.997   1_565     S
Be2381     Er2383    9.997   .     S
Er2382     Er2383    9.99   .     S
Er2382     Ti2384    9.995   .     S
Er2382     Be2385    9.997   .     S
Er2383     Ti2384    9.995   .     S
Be2385     Be2369    9.997   1_556     S
F2386     Ce755    10.0   1_556     S
F2386     Na2388    9.997   .     S
F2386     Ne2387    9.994   .     S
Ne2387     Na2388    9.997   .     S
F2389     Na2391    9.997   .     S
F2389     Ne2390    9.994   .     S
Ne2390     Na2391    9.997   .     S
Ne2390     Er2407    9.999   .     S
F2392     Na2394    9.997   .     S
F2392     Ne2393    9.994   .     S
Ne2393     Na2394    9.997   .     S
Ne2393     Er2413    9.999   .     S
F2395     Na2397    9.997   .     S
F2395     Ne2396    9.994   .     S
Ne2396     Na2397    9.997   .     S
Ne2396     Er2412    9.999   .     S
F2398     Na2400    9.997   .     S
F2398     Ne2399    9.994   .     S
Ne2399     Na2400    9.997   .     S
Ne2399     Er2418    9.999   .     S
F2401     Na2403    9.997   .     S
F2401     Ne2402    9.994   .     S
Ne2402     Na2403    9.997   .     S
Ne2402     Er2419    9.999   .     S
B2404     Be2409    9.996   .     S
B2404     Be2417    9.996   .     S
B2404     V2426    9.998   .     S
Be2405     Er2406    9.997   .     S
Be2405     B2410    9.996   .     S
Be2405     Be2415    9.997   .     S
Er2406     Er2407    9.99   .     S
Er2406     Ti2408    9.995   .     S
Er2406     Ne2423    9.999   .     S
Er2407     Ti2408    9.995   .     S
Er2407     Be2409    9.997   .     S
Be2409     Be2417    9.997   .     S
B2410     Be2415    9.996   .     S
B2410     V2427    9.998   .     S
Be2411     Er2412    9.997   .     S
Be2411     B2416    9.996   .     S
Be2411     Be2421    9.997   .     S
Er2412     Er2413    9.99   .     S
Er2412     Ti2414    9.995   .     S
Er2413     Ti2414    9.995   .     S
Er2413     Be2415    9.997   .     S
B2416     Be2421    9.996   .     S
B2416     V2425    9.998   .     S
Be2417     Er2419    9.997   .     S
Er2418     Er2419    9.99   .     S
Er2418     Ti2420    9.995   .     S
Er2418     Be2421    9.997   .     S
Er2419     Ti2420    9.995   .     S
F2422     Na2424    9.997   .     S
F2422     Ne2423    9.994   .     S
Ne2423     Na2424    9.997   .     S
V2425     V2427    9.994   .     S
V2425     V2426    9.994   .     S
V2425     Li2434    10.0   .     S
V2426     V2427    9.994   .     S
V2426     Li2448    10.0   .     S
V2427     Li2439    10.0   .     S
Li2428     Li2429    9.997   .     S
Li2428     Li2430    9.997   .     S
Li2428     V2441    10.0   .     S
Li2429     Li2430    9.997   .     S
Li2429     V2445    10.0   .     S
Li2430     V2432    10.0   .     S
V2431     V2432    9.994   .     S
V2431     V2433    9.994   .     S
V2431     Li2436    10.0   .     S
V2432     V2433    9.994   .     S
V2433     Li2438    10.0   .     S
Li2434     Li2436    9.997   .     S
Li2434     Li2435    9.997   .     S
Li2435     Li2436    9.997   .     S
Li2435     V2443    10.0   .     S
Li2437     Li2438    9.997   .     S
Li2437     Li2439    9.997   .     S
Li2437     V2442    10.0   .     S
Li2438     Li2439    9.997   .     S
V2440     V2441    9.994   .     S
V2440     V2442    9.994   .     S
V2440     Li2447    10.0   .     S
V2441     V2442    9.994   .     S
V2443     V2444    9.994   .     S
V2443     V2445    9.994   .     S
V2444     V2445    9.994   .     S
V2444     Li2446    10.0   .     S
Li2446     Li2447    9.997   .     S
Li2446     Li2448    9.997   .     S
Li2447     Li2448    9.997   .     S
