data_mtnea
_audit_creation_date              2020-02-02
_audit_creation_method            'Pymatgen'
_symmetry_space_group_name_H-M    'P1'
_symmetry_Int_Tables_number       1
loop_
_symmetry_equiv_pos_as_xyz
  x,y,z
_cell_length_a                    187.8189
_cell_length_b                    187.8189
_cell_length_c                    187.8189
_cell_angle_alpha                 90.0
_cell_angle_beta                 90.0
_cell_angle_gamma                 90.0
loop_
_atom_site_label
_atom_site_type_symbol
_atom_site_fract_x
_atom_site_fract_y
_atom_site_fract_z
Ti1     Ti     0.0896   0.3562   0.3938
Ti2     Ti     0.0896   0.3938   0.3562
H3     H     0.1357   0.4126   0.375
H4     H     0.1357   0.375   0.4126
H5     H     0.1357   0.375   0.3374
H6     H     0.1357   0.3374   0.375
Ti7     Ti     0.5896   0.3562   0.8938
Ti8     Ti     0.5896   0.3938   0.8562
H9     H     0.6357   0.4126   0.875
H10     H     0.6357   0.375   0.9126
H11     H     0.6357   0.3374   0.875
H12     H     0.6357   0.375   0.8374
Ti13     Ti     0.0896   0.8562   0.8938
Ti14     Ti     0.0896   0.8938   0.8562
H15     H     0.1357   0.875   0.9126
H16     H     0.1357   0.9126   0.875
H17     H     0.1357   0.875   0.8374
H18     H     0.1357   0.8374   0.875
Ti19     Ti     0.3562   0.3938   0.0896
Ti20     Ti     0.3938   0.3562   0.0896
H21     H     0.4126   0.375   0.1357
H22     H     0.375   0.3374   0.1357
H23     H     0.375   0.4126   0.1357
H24     H     0.3374   0.375   0.1357
Ti25     Ti     0.1604   0.3938   0.8938
Ti26     Ti     0.1604   0.3562   0.8562
H27     H     0.1143   0.375   0.9126
H28     H     0.1143   0.4126   0.875
H29     H     0.1143   0.3374   0.875
H30     H     0.1143   0.375   0.8374
Ti31     Ti     0.3562   0.5896   0.8938
Ti32     Ti     0.3938   0.5896   0.8562
H33     H     0.375   0.6357   0.8374
H34     H     0.3374   0.6357   0.875
H35     H     0.375   0.6357   0.9126
H36     H     0.4126   0.6357   0.875
Ti37     Ti     0.6062   0.8396   0.1062
Ti38     Ti     0.6438   0.8396   0.1438
H39     H     0.6626   0.8857   0.125
H40     H     0.625   0.8857   0.1626
H41     H     0.625   0.8857   0.0874
H42     H     0.5874   0.8857   0.125
Ti43     Ti     0.6062   0.1062   0.8396
Ti44     Ti     0.6438   0.1438   0.8396
H45     H     0.6626   0.125   0.8857
H46     H     0.625   0.0874   0.8857
H47     H     0.625   0.1626   0.8857
H48     H     0.5874   0.125   0.8857
Ti49     Ti     0.8396   0.1062   0.6062
Ti50     Ti     0.8396   0.1438   0.6438
H51     H     0.8857   0.125   0.6626
H52     H     0.8857   0.0874   0.625
H53     H     0.8857   0.1626   0.625
H54     H     0.8857   0.125   0.5874
Ti55     Ti     0.1062   0.8396   0.6062
Ti56     Ti     0.1438   0.8396   0.6438
H57     H     0.125   0.8857   0.6626
H58     H     0.0874   0.8857   0.625
H59     H     0.1626   0.8857   0.625
H60     H     0.125   0.8857   0.5874
Ti61     Ti     0.1062   0.6062   0.8396
Ti62     Ti     0.1438   0.6438   0.8396
H63     H     0.125   0.6626   0.8857
H64     H     0.0874   0.625   0.8857
H65     H     0.1626   0.625   0.8857
H66     H     0.125   0.5874   0.8857
Ti67     Ti     0.1438   0.6062   0.4104
Ti68     Ti     0.1062   0.6438   0.4104
H69     H     0.125   0.6626   0.3643
H70     H     0.1626   0.625   0.3643
H71     H     0.0874   0.625   0.3643
H72     H     0.125   0.5874   0.3643
Ti73     Ti     0.6604   0.3938   0.3938
Ti74     Ti     0.6604   0.3562   0.3562
H75     H     0.6143   0.4126   0.375
H76     H     0.6143   0.375   0.4126
H77     H     0.6143   0.3374   0.375
H78     H     0.6143   0.375   0.3374
Ti79     Ti     0.1438   0.9104   0.1062
Ti80     Ti     0.1062   0.9104   0.1438
H81     H     0.1626   0.8643   0.125
H82     H     0.125   0.8643   0.0874
H83     H     0.0874   0.8643   0.125
H84     H     0.125   0.8643   0.1626
Ti85     Ti     0.1438   0.1062   0.9104
Ti86     Ti     0.1062   0.1438   0.9104
H87     H     0.125   0.0874   0.8643
H88     H     0.0874   0.125   0.8643
H89     H     0.125   0.1626   0.8643
H90     H     0.1626   0.125   0.8643
Ti91     Ti     0.1438   0.4104   0.6062
Ti92     Ti     0.1062   0.4104   0.6438
H93     H     0.1626   0.3643   0.625
H94     H     0.125   0.3643   0.6626
H95     H     0.0874   0.3643   0.625
H96     H     0.125   0.3643   0.5874
Ti97     Ti     0.1438   0.3396   0.1438
Ti98     Ti     0.1062   0.3396   0.1062
H99     H     0.0874   0.3857   0.125
H100     H     0.125   0.3857   0.0874
H101     H     0.125   0.3857   0.1626
H102     H     0.1626   0.3857   0.125
Ti103     Ti     0.3396   0.1062   0.1062
Ti104     Ti     0.3396   0.1438   0.1438
H105     H     0.3857   0.125   0.0874
H106     H     0.3857   0.0874   0.125
H107     H     0.3857   0.1626   0.125
H108     H     0.3857   0.125   0.1626
Ti109     Ti     0.1438   0.1438   0.3396
Ti110     Ti     0.1062   0.1062   0.3396
H111     H     0.1626   0.125   0.3857
H112     H     0.125   0.1626   0.3857
H113     H     0.125   0.0874   0.3857
H114     H     0.0874   0.125   0.3857
Ti115     Ti     0.3938   0.1604   0.8938
Ti116     Ti     0.3562   0.1604   0.8562
H117     H     0.375   0.1143   0.9126
H118     H     0.4126   0.1143   0.875
H119     H     0.3374   0.1143   0.875
H120     H     0.375   0.1143   0.8374
Ti121     Ti     0.6062   0.6062   0.3396
Ti122     Ti     0.6438   0.6438   0.3396
H123     H     0.5874   0.625   0.3857
H124     H     0.625   0.5874   0.3857
H125     H     0.6626   0.625   0.3857
H126     H     0.625   0.6626   0.3857
Ti127     Ti     0.1604   0.8938   0.3938
Ti128     Ti     0.1604   0.8562   0.3562
H129     H     0.1143   0.875   0.4126
H130     H     0.1143   0.9126   0.375
H131     H     0.1143   0.875   0.3374
H132     H     0.1143   0.8374   0.375
Ti133     Ti     0.3938   0.8938   0.1604
Ti134     Ti     0.3562   0.8562   0.1604
H135     H     0.375   0.9126   0.1143
H136     H     0.4126   0.875   0.1143
H137     H     0.3374   0.875   0.1143
H138     H     0.375   0.8374   0.1143
Ti139     Ti     0.8938   0.1604   0.3938
Ti140     Ti     0.8562   0.1604   0.3562
H141     H     0.9126   0.1143   0.375
H142     H     0.875   0.1143   0.3374
H143     H     0.875   0.1143   0.4126
H144     H     0.8374   0.1143   0.375
Ti145     Ti     0.8938   0.3938   0.1604
Ti146     Ti     0.8562   0.3562   0.1604
H147     H     0.9126   0.375   0.1143
H148     H     0.875   0.4126   0.1143
H149     H     0.875   0.3374   0.1143
H150     H     0.8374   0.375   0.1143
Ti151     Ti     0.3396   0.6438   0.6438
Ti152     Ti     0.3396   0.6062   0.6062
H153     H     0.3857   0.625   0.6626
H154     H     0.3857   0.6626   0.625
H155     H     0.3857   0.5874   0.625
H156     H     0.3857   0.625   0.5874
Ti157     Ti     0.3938   0.0896   0.3562
Ti158     Ti     0.3562   0.0896   0.3938
H159     H     0.3374   0.1357   0.375
H160     H     0.375   0.1357   0.3374
H161     H     0.375   0.1357   0.4126
H162     H     0.4126   0.1357   0.375
Ti163     Ti     0.3938   0.3938   0.6604
Ti164     Ti     0.3562   0.3562   0.6604
H165     H     0.375   0.3374   0.6143
H166     H     0.3374   0.375   0.6143
H167     H     0.375   0.4126   0.6143
H168     H     0.4126   0.375   0.6143
Ti169     Ti     0.8562   0.0896   0.8938
Ti170     Ti     0.8938   0.0896   0.8562
H171     H     0.8374   0.1357   0.875
H172     H     0.875   0.1357   0.9126
H173     H     0.9126   0.1357   0.875
H174     H     0.875   0.1357   0.8374
Ti175     Ti     0.8938   0.8562   0.0896
Ti176     Ti     0.8562   0.8938   0.0896
H177     H     0.9126   0.875   0.1357
H178     H     0.875   0.8374   0.1357
H179     H     0.875   0.9126   0.1357
H180     H     0.8374   0.875   0.1357
Ti181     Ti     0.6062   0.4104   0.1438
Ti182     Ti     0.6438   0.4104   0.1062
H183     H     0.6626   0.3643   0.125
H184     H     0.625   0.3643   0.0874
H185     H     0.625   0.3643   0.1626
H186     H     0.5874   0.3643   0.125
Ti187     Ti     0.4104   0.1438   0.6062
Ti188     Ti     0.4104   0.1062   0.6438
H189     H     0.3643   0.125   0.6626
H190     H     0.3643   0.0874   0.625
H191     H     0.3643   0.1626   0.625
H192     H     0.3643   0.125   0.5874
Ti193     Ti     0.9104   0.6438   0.6062
Ti194     Ti     0.9104   0.6062   0.6438
H195     H     0.8643   0.625   0.6626
H196     H     0.8643   0.6626   0.625
H197     H     0.8643   0.625   0.5874
H198     H     0.8643   0.5874   0.625
Ti199     Ti     0.6062   0.1438   0.4104
Ti200     Ti     0.6438   0.1062   0.4104
H201     H     0.6626   0.125   0.3643
H202     H     0.625   0.0874   0.3643
H203     H     0.625   0.1626   0.3643
H204     H     0.5874   0.125   0.3643
Ti205     Ti     0.6062   0.9104   0.6438
Ti206     Ti     0.6438   0.9104   0.6062
H207     H     0.6626   0.8643   0.625
H208     H     0.625   0.8643   0.6626
H209     H     0.625   0.8643   0.5874
H210     H     0.5874   0.8643   0.625
Ti211     Ti     0.9104   0.1438   0.1062
Ti212     Ti     0.9104   0.1062   0.1438
H213     H     0.8643   0.0874   0.125
H214     H     0.8643   0.125   0.1626
H215     H     0.8643   0.1626   0.125
H216     H     0.8643   0.125   0.0874
Ti217     Ti     0.8396   0.6438   0.1438
Ti218     Ti     0.8396   0.6062   0.1062
H219     H     0.8857   0.625   0.1626
H220     H     0.8857   0.6626   0.125
H221     H     0.8857   0.625   0.0874
H222     H     0.8857   0.5874   0.125
Ti223     Ti     0.6062   0.3396   0.6062
Ti224     Ti     0.6438   0.3396   0.6438
H225     H     0.625   0.3857   0.6626
H226     H     0.6626   0.3857   0.625
H227     H     0.5874   0.3857   0.625
H228     H     0.625   0.3857   0.5874
Ti229     Ti     0.6438   0.6062   0.9104
Ti230     Ti     0.6062   0.6438   0.9104
H231     H     0.625   0.6626   0.8643
H232     H     0.6626   0.625   0.8643
H233     H     0.5874   0.625   0.8643
H234     H     0.625   0.5874   0.8643
Ti235     Ti     0.3938   0.6604   0.3938
Ti236     Ti     0.3562   0.6604   0.3562
H237     H     0.4126   0.6143   0.375
H238     H     0.375   0.6143   0.4126
H239     H     0.375   0.6143   0.3374
H240     H     0.3374   0.6143   0.375
Ti241     Ti     0.5896   0.8562   0.3938
Ti242     Ti     0.5896   0.8938   0.3562
H243     H     0.6357   0.8374   0.375
H244     H     0.6357   0.875   0.3374
H245     H     0.6357   0.9126   0.375
H246     H     0.6357   0.875   0.4126
Ti247     Ti     0.8562   0.5896   0.3938
Ti248     Ti     0.8938   0.5896   0.3562
H249     H     0.875   0.6357   0.4126
H250     H     0.9126   0.6357   0.375
H251     H     0.875   0.6357   0.3374
H252     H     0.8374   0.6357   0.375
Ti253     Ti     0.8562   0.3938   0.5896
Ti254     Ti     0.8938   0.3562   0.5896
H255     H     0.8374   0.375   0.6357
H256     H     0.875   0.3374   0.6357
H257     H     0.9126   0.375   0.6357
H258     H     0.875   0.4126   0.6357
Ti259     Ti     0.4104   0.6062   0.1438
Ti260     Ti     0.4104   0.6438   0.1062
H261     H     0.3643   0.6626   0.125
H262     H     0.3643   0.625   0.0874
H263     H     0.3643   0.5874   0.125
H264     H     0.3643   0.625   0.1626
Ti265     Ti     0.3562   0.8938   0.5896
Ti266     Ti     0.3938   0.8562   0.5896
H267     H     0.4126   0.875   0.6357
H268     H     0.375   0.9126   0.6357
H269     H     0.3374   0.875   0.6357
H270     H     0.375   0.8374   0.6357
Ti271     Ti     0.6604   0.8938   0.8938
Ti272     Ti     0.6604   0.8562   0.8562
H273     H     0.6143   0.875   0.9126
H274     H     0.6143   0.9126   0.875
H275     H     0.6143   0.8374   0.875
H276     H     0.6143   0.875   0.8374
Ti277     Ti     0.8938   0.6604   0.8938
Ti278     Ti     0.8562   0.6604   0.8562
H279     H     0.875   0.6143   0.9126
H280     H     0.9126   0.6143   0.875
H281     H     0.875   0.6143   0.8374
H282     H     0.8374   0.6143   0.875
Ti283     Ti     0.8938   0.8938   0.6604
Ti284     Ti     0.8562   0.8562   0.6604
H285     H     0.9126   0.875   0.6143
H286     H     0.875   0.9126   0.6143
H287     H     0.8374   0.875   0.6143
H288     H     0.875   0.8374   0.6143
S289     S     0.5629   0.0629   0.7624
C290     C     0.5733   0.0733   0.8136
B291     B     0.5754   0.0754   0.7122
S292     S     0.6871   0.1871   0.7624
C293     C     0.6767   0.1767   0.8136
B294     B     0.6746   0.1746   0.7122
He295     He     0.6062   0.1062   0.6815
He296     He     0.6438   0.1438   0.6815
S297     S     0.1871   0.7624   0.6871
C298     C     0.1767   0.8136   0.6767
B299     B     0.1746   0.7122   0.6746
S300     S     0.0629   0.7624   0.5629
C301     C     0.0733   0.8136   0.5733
B302     B     0.0754   0.7122   0.5754
He303     He     0.1438   0.6815   0.6438
He304     He     0.1062   0.6815   0.6062
C305     C     0.6767   0.0733   0.4364
S306     S     0.6871   0.0629   0.4876
B307     B     0.6746   0.0754   0.5378
C308     C     0.5733   0.1767   0.4364
S309     S     0.5629   0.1871   0.4876
B310     B     0.5754   0.1746   0.5378
He311     He     0.6438   0.1062   0.5685
He312     He     0.6062   0.1438   0.5685
B313     B     0.4246   0.4246   0.7878
C314     C     0.4267   0.4267   0.6864
S315     S     0.4371   0.4371   0.7376
B316     B     0.3254   0.3254   0.7878
C317     C     0.3233   0.3233   0.6864
S318     S     0.3129   0.3129   0.7376
He319     He     0.3938   0.3938   0.8185
He320     He     0.3562   0.3562   0.8185
B321     B     0.0754   0.0378   0.1746
S322     S     0.0629   0.9876   0.1871
C323     C     0.0733   0.9364   0.1767
He324     He     0.1438   0.0685   0.1062
He325     He     0.1062   0.0685   0.1438
B326     B     0.1746   0.0378   0.0754
C327     C     0.1767   0.9364   0.0733
S328     S     0.1871   0.9876   0.0629
C329     C     0.3136   0.1767   0.1767
S330     S     0.2624   0.1871   0.1871
B331     B     0.2122   0.1746   0.1746
C332     C     0.3136   0.0733   0.0733
S333     S     0.2624   0.0629   0.0629
B334     B     0.2122   0.0754   0.0754
He335     He     0.1815   0.1438   0.1438
He336     He     0.1815   0.1062   0.1062
B337     B     0.0378   0.1746   0.0754
S338     S     0.9876   0.1871   0.0629
C339     C     0.9364   0.1767   0.0733
He340     He     0.0685   0.1062   0.1438
He341     He     0.0685   0.1438   0.1062
B342     B     0.0378   0.0754   0.1746
S343     S     0.9876   0.0629   0.1871
C344     C     0.9364   0.0733   0.1767
C345     C     0.4364   0.6767   0.0733
S346     S     0.4876   0.6871   0.0629
B347     B     0.5378   0.6746   0.0754
C348     C     0.4364   0.5733   0.1767
S349     S     0.4876   0.5629   0.1871
B350     B     0.5378   0.5754   0.1746
He351     He     0.5685   0.6438   0.1062
He352     He     0.5685   0.6062   0.1438
C353     C     0.0636   0.4267   0.3233
S354     S     0.0124   0.4371   0.3129
B355     B     0.9622   0.4246   0.3254
He356     He     0.9315   0.3562   0.3938
He357     He     0.9315   0.3938   0.3562
S358     S     0.0124   0.3129   0.4371
C359     C     0.0636   0.3233   0.4267
B360     B     0.9622   0.3254   0.4246
S361     S     0.5629   0.9876   0.6871
C362     C     0.5733   0.9364   0.6767
B363     B     0.5754   0.0378   0.6746
He364     He     0.6438   0.0685   0.6062
He365     He     0.6062   0.0685   0.6438
C366     C     0.6767   0.9364   0.5733
S367     S     0.6871   0.9876   0.5629
B368     B     0.6746   0.0378   0.5754
B369     B     0.4246   0.7878   0.4246
C370     C     0.4267   0.6864   0.4267
S371     S     0.4371   0.7376   0.4371
B372     B     0.3254   0.7878   0.3254
S373     S     0.3129   0.7376   0.3129
C374     C     0.3233   0.6864   0.3233
He375     He     0.3938   0.8185   0.3938
He376     He     0.3562   0.8185   0.3562
S377     S     0.7624   0.1871   0.6871
C378     C     0.8136   0.1767   0.6767
B379     B     0.7122   0.1746   0.6746
He380     He     0.6815   0.1062   0.6062
He381     He     0.6815   0.1438   0.6438
S382     S     0.7624   0.0629   0.5629
C383     C     0.8136   0.0733   0.5733
B384     B     0.7122   0.0754   0.5754
S385     S     0.9876   0.5629   0.6871
C386     C     0.9364   0.5733   0.6767
B387     B     0.0378   0.5754   0.6746
He388     He     0.0685   0.6438   0.6062
He389     He     0.0685   0.6062   0.6438
C390     C     0.9364   0.6767   0.5733
S391     S     0.9876   0.6871   0.5629
B392     B     0.0378   0.6746   0.5754
C393     C     0.0733   0.3136   0.0733
S394     S     0.0629   0.2624   0.0629
B395     B     0.0754   0.2122   0.0754
He396     He     0.1438   0.1815   0.1438
He397     He     0.1062   0.1815   0.1062
C398     C     0.1767   0.3136   0.1767
S399     S     0.1871   0.2624   0.1871
B400     B     0.1746   0.2122   0.1746
B401     B     0.0754   0.6746   0.5378
S402     S     0.0629   0.6871   0.4876
C403     C     0.0733   0.6767   0.4364
B404     B     0.1746   0.5754   0.5378
S405     S     0.1871   0.5629   0.4876
C406     C     0.1767   0.5733   0.4364
He407     He     0.1062   0.6438   0.5685
He408     He     0.1438   0.6062   0.5685
Er409     Er     0.3108   0.4769   0.0761
V410     V     0.3003   0.4873   0.025
Er411     Er     0.2731   0.4392   0.0761
V412     V     0.2627   0.4496   0.025
Li413     Li     0.2725   0.4398   0.1698
Be414     Be     0.2902   0.3924   0.1532
Ce415     Ce     0.2563   0.4203   0.123
Li416     Li     0.2275   0.4198   0.1898
Be417     Be     0.2098   0.4032   0.1424
Ce418     Ce     0.2437   0.373   0.1703
Li419     Li     0.1698   0.4398   0.2725
Be420     Be     0.1532   0.3924   0.2902
Ce421     Ce     0.1229   0.4203   0.2564
Li422     Li     0.1898   0.4198   0.2275
Be423     Be     0.1424   0.4032   0.2098
Ce424     Ce     0.1703   0.3729   0.2436
Er425     Er     0.1892   0.3261   0.2269
V426     V     0.1996   0.275   0.2373
Er427     Er     0.2269   0.3261   0.1892
V428     V     0.2373   0.275   0.1996
Er429     Er     0.0761   0.4769   0.3108
V430     V     0.025   0.4873   0.3004
Er431     Er     0.0761   0.4392   0.2731
V432     V     0.025   0.4496   0.2627
Li433     Li     0.1898   0.5225   0.3302
Be434     Be     0.1424   0.5402   0.3468
Ce435     Ce     0.1703   0.5064   0.377
Li436     Li     0.1698   0.4775   0.3102
Be437     Be     0.1532   0.4598   0.3576
Ce438     Ce     0.123   0.4936   0.3297
Li439     Li     0.2725   0.5802   0.3102
Be440     Be     0.2902   0.5968   0.3576
Ce441     Ce     0.2564   0.627   0.3297
Li442     Li     0.2275   0.5602   0.3302
Be443     Be     0.2098   0.6076   0.3468
Ce444     Ce     0.2436   0.5797   0.377
Er445     Er     0.2269   0.5608   0.4239
V446     V     0.2373   0.5504   0.475
Er447     Er     0.1892   0.5231   0.4239
V448     V     0.1996   0.5127   0.475
Er449     Er     0.2731   0.6739   0.3108
V450     V     0.2627   0.725   0.3003
Er451     Er     0.3108   0.6739   0.2731
V452     V     0.3004   0.725   0.2627
Li453     Li     0.3302   0.5225   0.1898
Be454     Be     0.3468   0.5402   0.1424
Ce455     Ce     0.377   0.5064   0.1703
Li456     Li     0.3102   0.4775   0.1698
Be457     Be     0.3576   0.4598   0.1532
Ce458     Ce     0.3297   0.4936   0.1229
Li459     Li     0.3102   0.5802   0.2725
Be460     Be     0.3576   0.5968   0.2902
Ce461     Ce     0.3297   0.627   0.2563
Li462     Li     0.3302   0.5602   0.2275
Be463     Be     0.3468   0.6076   0.2098
Ce464     Ce     0.377   0.5797   0.2436
Er465     Er     0.4239   0.5608   0.2269
V466     V     0.475   0.5504   0.2373
Er467     Er     0.4239   0.5231   0.1892
V468     V     0.475   0.5127   0.1997
C469     C     0.5733   0.5733   0.3136
S470     S     0.5629   0.5629   0.2624
B471     B     0.5754   0.5754   0.2122
C472     C     0.6767   0.6767   0.3136
S473     S     0.6871   0.6871   0.2624
B474     B     0.6746   0.6746   0.2122
He475     He     0.6062   0.6062   0.1815
He476     He     0.6438   0.6438   0.1815
Li477     Li     0.7725   0.6698   0.4398
Be478     Be     0.7902   0.6532   0.3924
Ce479     Ce     0.7564   0.623   0.4203
Li480     Li     0.7275   0.6898   0.4198
Be481     Be     0.7098   0.6424   0.4032
Ce482     Ce     0.7436   0.6703   0.3729
Er483     Er     0.6892   0.7269   0.3261
V484     V     0.6996   0.7373   0.275
Er485     Er     0.7269   0.6892   0.3261
V486     V     0.7373   0.6996   0.275
Li487     Li     0.8102   0.7725   0.5802
Be488     Be     0.8576   0.7902   0.5968
Ce489     Ce     0.8297   0.7564   0.627
Li490     Li     0.8302   0.7275   0.5602
Be491     Be     0.8468   0.7098   0.6076
Ce492     Ce     0.877   0.7436   0.5797
Er493     Er     0.9239   0.6892   0.5231
V494     V     0.975   0.6996   0.5127
Er495     Er     0.9239   0.7269   0.5608
V496     V     0.975   0.7373   0.5504
Li497     Li     0.8302   0.6898   0.5225
Be498     Be     0.8468   0.6424   0.5402
Ce499     Ce     0.877   0.6703   0.5064
Li500     Li     0.8102   0.6698   0.4775
Be501     Be     0.8576   0.6532   0.4598
Ce502     Ce     0.8297   0.623   0.4936
Er503     Er     0.8108   0.5761   0.4769
V504     V     0.8004   0.525   0.4873
Er505     Er     0.7731   0.5761   0.4392
V506     V     0.7627   0.525   0.4496
Er507     Er     0.7731   0.8108   0.6739
V508     V     0.7627   0.8004   0.725
Er509     Er     0.8108   0.7731   0.6739
V510     V     0.8004   0.7627   0.725
Li511     Li     0.7275   0.8302   0.5602
Be512     Be     0.7098   0.8468   0.6076
Ce513     Ce     0.7436   0.877   0.5797
Li514     Li     0.7725   0.8102   0.5802
Be515     Be     0.7902   0.8576   0.5968
Ce516     Ce     0.7564   0.8297   0.627
Er517     Er     0.7269   0.9239   0.5608
V518     V     0.7373   0.975   0.5504
Er519     Er     0.6892   0.9239   0.5231
V520     V     0.6996   0.975   0.5127
Li521     Li     0.6898   0.7275   0.4198
Be522     Be     0.6424   0.7098   0.4032
Ce523     Ce     0.6703   0.7436   0.373
Li524     Li     0.6698   0.7725   0.4398
Be525     Be     0.6532   0.7902   0.3924
Ce526     Ce     0.623   0.7564   0.4203
Li527     Li     0.6898   0.8302   0.5225
Be528     Be     0.6424   0.8468   0.5402
Ce529     Ce     0.6703   0.877   0.5064
Li530     Li     0.6698   0.8102   0.4775
Be531     Be     0.6532   0.8576   0.4598
Ce532     Ce     0.623   0.8297   0.4936
Er533     Er     0.5761   0.7731   0.4392
V534     V     0.525   0.7627   0.4496
Er535     Er     0.5761   0.8108   0.4769
V536     V     0.525   0.8004   0.4873
S537     S     0.5629   0.7624   0.0629
C538     C     0.5733   0.8136   0.0733
B539     B     0.5754   0.7122   0.0754
He540     He     0.6062   0.6815   0.1062
He541     He     0.6438   0.6815   0.1438
S542     S     0.6871   0.7624   0.1871
C543     C     0.6767   0.8136   0.1767
B544     B     0.6746   0.7122   0.1746
S545     S     0.5124   0.8129   0.4371
C546     C     0.5636   0.8233   0.4267
B547     B     0.4622   0.8254   0.4246
B548     B     0.4622   0.9246   0.3254
S549     S     0.5124   0.9371   0.3129
C550     C     0.5636   0.9267   0.3233
He551     He     0.4315   0.8562   0.3938
He552     He     0.4315   0.8938   0.3562
B553     B     0.9246   0.4622   0.3254
S554     S     0.9371   0.5124   0.3129
C555     C     0.9267   0.5636   0.3233
S556     S     0.8129   0.5124   0.4371
C557     C     0.8233   0.5636   0.4267
B558     B     0.8254   0.4622   0.4246
He559     He     0.8938   0.4315   0.3562
He560     He     0.8562   0.4315   0.3938
S561     S     0.2376   0.8129   0.3129
C562     C     0.1864   0.8233   0.3233
B563     B     0.2878   0.8254   0.3254
S564     S     0.2376   0.9371   0.4371
C565     C     0.1864   0.9267   0.4267
B566     B     0.2878   0.9246   0.4246
He567     He     0.3185   0.8562   0.3562
He568     He     0.3185   0.8938   0.3938
S569     S     0.7624   0.5629   0.0629
C570     C     0.8136   0.5733   0.0733
B571     B     0.7122   0.5754   0.0754
He572     He     0.6815   0.6438   0.1438
He573     He     0.6815   0.6062   0.1062
S574     S     0.7624   0.6871   0.1871
C575     C     0.8136   0.6767   0.1767
B576     B     0.7122   0.6746   0.1746
S577     S     0.8129   0.2376   0.3129
C578     C     0.8233   0.1864   0.3233
B579     B     0.8254   0.2878   0.3254
S580     S     0.9371   0.2376   0.4371
C581     C     0.9267   0.1864   0.4267
B582     B     0.9246   0.2878   0.4246
He583     He     0.8938   0.3185   0.3938
He584     He     0.8562   0.3185   0.3562
Li585     Li     0.7725   0.0802   0.3102
Be586     Be     0.7902   0.0968   0.3576
Ce587     Ce     0.7564   0.127   0.3297
Li588     Li     0.7275   0.0602   0.3302
Be589     Be     0.7098   0.1076   0.3468
Ce590     Ce     0.7436   0.0797   0.377
Er591     Er     0.6892   0.0231   0.4239
V592     V     0.6996   0.0127   0.475
Er593     Er     0.7269   0.0608   0.4239
V594     V     0.7373   0.0504   0.475
Er595     Er     0.7731   0.1739   0.3108
V596     V     0.7627   0.225   0.3003
Er597     Er     0.8108   0.1739   0.2731
V598     V     0.8004   0.225   0.2627
Li599     Li     0.8102   0.0802   0.2725
Be600     Be     0.8576   0.0968   0.2902
Ce601     Ce     0.8297   0.127   0.2563
Li602     Li     0.8302   0.0602   0.2275
Be603     Be     0.8468   0.1076   0.2098
Ce604     Ce     0.877   0.0797   0.2436
Er605     Er     0.9239   0.0608   0.2269
V606     V     0.975   0.0504   0.2373
Er607     Er     0.9239   0.0231   0.1892
V608     V     0.975   0.0127   0.1997
Li609     Li     0.6898   0.0225   0.3302
Be610     Be     0.6424   0.0402   0.3468
Ce611     Ce     0.6703   0.0064   0.377
Li612     Li     0.6698   0.9775   0.3102
Be613     Be     0.6532   0.9598   0.3576
Ce614     Ce     0.623   0.9936   0.3297
Er615     Er     0.5761   0.9769   0.3108
V616     V     0.525   0.9873   0.3004
Er617     Er     0.5761   0.9392   0.2731
V618     V     0.525   0.9496   0.2627
Li619     Li     0.6898   0.9198   0.2275
Be620     Be     0.6424   0.9032   0.2098
Ce621     Ce     0.6703   0.873   0.2436
Li622     Li     0.6698   0.9398   0.2725
Be623     Be     0.6532   0.8924   0.2902
Ce624     Ce     0.623   0.9203   0.2564
Li625     Li     0.7725   0.9398   0.1698
Be626     Be     0.7902   0.8924   0.1532
Ce627     Ce     0.7564   0.9203   0.123
Li628     Li     0.7275   0.9198   0.1898
Be629     Be     0.7098   0.9032   0.1424
Ce630     Ce     0.7436   0.873   0.1703
Er631     Er     0.6892   0.8261   0.2269
V632     V     0.6996   0.775   0.2373
Er633     Er     0.7269   0.8261   0.1892
V634     V     0.7373   0.775   0.1996
Li635     Li     0.8302   0.0225   0.1898
Be636     Be     0.8468   0.0402   0.1424
Ce637     Ce     0.877   0.0064   0.1703
Li638     Li     0.8102   0.9775   0.1698
Be639     Be     0.8576   0.9598   0.1532
Ce640     Ce     0.8297   0.9936   0.1229
Er641     Er     0.7731   0.9392   0.0761
V642     V     0.7627   0.9496   0.025
Er643     Er     0.8108   0.9769   0.0761
V644     V     0.8004   0.9873   0.025
S645     S     0.9371   0.8129   0.0124
C646     C     0.9267   0.8233   0.0636
B647     B     0.9246   0.8254   0.9622
S648     S     0.8129   0.9371   0.0124
C649     C     0.8233   0.9267   0.0636
B650     B     0.8254   0.9246   0.9622
He651     He     0.8562   0.8938   0.9315
He652     He     0.8938   0.8562   0.9315
Li653     Li     0.0225   0.8302   0.1898
Be654     Be     0.0402   0.8468   0.1424
Ce655     Ce     0.0064   0.877   0.1703
Li656     Li     0.9775   0.8102   0.1698
Be657     Be     0.9598   0.8576   0.1532
Ce658     Ce     0.9936   0.8297   0.123
Er659     Er     0.0608   0.9239   0.2269
V660     V     0.0503   0.975   0.2373
Er661     Er     0.0231   0.9239   0.1892
V662     V     0.0127   0.975   0.1996
Er663     Er     0.9769   0.8108   0.0761
V664     V     0.9873   0.8004   0.025
Er665     Er     0.9392   0.7731   0.0761
V666     V     0.9496   0.7627   0.025
Li667     Li     0.9398   0.7725   0.1698
Be668     Be     0.8924   0.7902   0.1532
Ce669     Ce     0.9203   0.7564   0.1229
Li670     Li     0.9198   0.7275   0.1898
Be671     Be     0.9032   0.7098   0.1424
Ce672     Ce     0.873   0.7436   0.1703
Er673     Er     0.8261   0.6892   0.2269
V674     V     0.775   0.6996   0.2373
Er675     Er     0.8261   0.7269   0.1892
V676     V     0.775   0.7373   0.1996
Li677     Li     0.0802   0.8102   0.2725
Be678     Be     0.0968   0.8576   0.2902
Ce679     Ce     0.127   0.8297   0.2564
Li680     Li     0.0602   0.8302   0.2275
Be681     Be     0.1076   0.8468   0.2098
Ce682     Ce     0.0797   0.877   0.2436
Er683     Er     0.1739   0.7731   0.3108
V684     V     0.225   0.7627   0.3004
Er685     Er     0.1739   0.8108   0.2731
V686     V     0.225   0.8004   0.2627
Li687     Li     0.9198   0.6898   0.2275
Be688     Be     0.9032   0.6424   0.2098
Ce689     Ce     0.873   0.6703   0.2437
Li690     Li     0.9398   0.6698   0.2725
Be691     Be     0.8924   0.6532   0.2902
Ce692     Ce     0.9203   0.623   0.2564
Er693     Er     0.9392   0.5761   0.2731
V694     V     0.9496   0.525   0.2627
Er695     Er     0.9769   0.5761   0.3108
V696     V     0.9873   0.525   0.3004
Li697     Li     0.0225   0.6898   0.3302
Be698     Be     0.0402   0.6424   0.3468
Ce699     Ce     0.0064   0.6703   0.377
Li700     Li     0.9775   0.6698   0.3102
Be701     Be     0.9598   0.6532   0.3576
Ce702     Ce     0.9936   0.623   0.3297
Li703     Li     0.0802   0.7725   0.3102
Be704     Be     0.0968   0.7902   0.3576
Ce705     Ce     0.127   0.7564   0.3297
Li706     Li     0.0602   0.7275   0.3302
Be707     Be     0.1076   0.7098   0.3468
Ce708     Ce     0.0797   0.7436   0.377
Er709     Er     0.0608   0.7269   0.4239
V710     V     0.0504   0.7373   0.475
Er711     Er     0.0231   0.6892   0.4239
V712     V     0.0127   0.6996   0.475
S713     S     0.8129   0.8129   0.7376
C714     C     0.8233   0.8233   0.6864
B715     B     0.8254   0.8254   0.7878
B716     B     0.9246   0.9246   0.7878
S717     S     0.9371   0.9371   0.7376
C718     C     0.9267   0.9267   0.6864
He719     He     0.8938   0.8938   0.8185
He720     He     0.8562   0.8562   0.8185
Er721     Er     0.1739   0.9392   0.4769
V722     V     0.225   0.9496   0.4873
Er723     Er     0.1739   0.9769   0.4392
V724     V     0.225   0.9873   0.4496
Li725     Li     0.0602   0.9198   0.5225
Be726     Be     0.1076   0.9032   0.5402
Ce727     Ce     0.0797   0.873   0.5064
Li728     Li     0.0802   0.9398   0.4775
Be729     Be     0.0968   0.8924   0.4598
Ce730     Ce     0.127   0.9203   0.4936
Li731     Li     0.0225   0.9198   0.5602
Be732     Be     0.0402   0.9032   0.6076
Ce733     Ce     0.0064   0.873   0.5797
Li734     Li     0.9775   0.9398   0.5802
Be735     Be     0.9598   0.8924   0.5968
Ce736     Ce     0.9936   0.9203   0.627
Er737     Er     0.0231   0.8261   0.5608
V738     V     0.0127   0.775   0.5504
Er739     Er     0.0608   0.8261   0.5231
V740     V     0.0504   0.775   0.5127
Er741     Er     0.9769   0.9392   0.6739
V742     V     0.9873   0.9496   0.725
Er743     Er     0.9392   0.9769   0.6739
V744     V     0.9496   0.9873   0.725
Er745     Er     0.9392   0.1739   0.4769
V746     V     0.9496   0.225   0.4873
Er747     Er     0.9769   0.1739   0.4392
V748     V     0.9873   0.225   0.4496
Li749     Li     0.9198   0.0225   0.5602
Be750     Be     0.9032   0.0402   0.6076
Ce751     Ce     0.873   0.0064   0.5797
Li752     Li     0.9398   0.9775   0.5802
Be753     Be     0.8924   0.9598   0.5968
Ce754     Ce     0.9203   0.9936   0.627
Li755     Li     0.9398   0.0802   0.4775
Be756     Be     0.8924   0.0968   0.4598
Ce757     Ce     0.9203   0.127   0.4936
Li758     Li     0.9198   0.0602   0.5225
Be759     Be     0.9032   0.1076   0.5402
Ce760     Ce     0.873   0.0797   0.5064
Er761     Er     0.8261   0.0608   0.5231
V762     V     0.775   0.0504   0.5127
Er763     Er     0.8261   0.0231   0.5608
V764     V     0.775   0.0127   0.5504
Li765     Li     0.0802   0.9775   0.4398
Be766     Be     0.0968   0.9598   0.3924
Ce767     Ce     0.127   0.9936   0.4203
Li768     Li     0.0602   0.0225   0.4198
Be769     Be     0.1076   0.0402   0.4032
Ce770     Ce     0.0797   0.0064   0.373
Li771     Li     0.9775   0.0802   0.4398
Be772     Be     0.9598   0.0968   0.3924
Ce773     Ce     0.9936   0.127   0.4203
Li774     Li     0.0225   0.0602   0.4198
Be775     Be     0.0402   0.1076   0.4032
Ce776     Ce     0.0064   0.0797   0.373
Er777     Er     0.0608   0.0231   0.3261
V778     V     0.0504   0.0127   0.275
Er779     Er     0.0231   0.0608   0.3261
V780     V     0.0127   0.0504   0.275
C781     C     0.5733   0.4364   0.1767
S782     S     0.5629   0.4876   0.1871
B783     B     0.5754   0.5378   0.1746
He784     He     0.6438   0.5685   0.1062
He785     He     0.6062   0.5685   0.1438
B786     B     0.6746   0.5378   0.0754
S787     S     0.6871   0.4876   0.0629
C788     C     0.6767   0.4364   0.0733
B789     B     0.1746   0.1746   0.2122
C790     C     0.1767   0.1767   0.3136
S791     S     0.1871   0.1871   0.2624
C792     C     0.0733   0.0733   0.3136
S793     S     0.0629   0.0629   0.2624
B794     B     0.0754   0.0754   0.2122
He795     He     0.1062   0.1062   0.1815
He796     He     0.1438   0.1438   0.1815
C797     C     0.4267   0.0636   0.3233
S798     S     0.4371   0.0124   0.3129
B799     B     0.4246   0.9622   0.3254
C800     C     0.3233   0.0636   0.4267
S801     S     0.3129   0.0124   0.4371
B802     B     0.3254   0.9622   0.4246
He803     He     0.3938   0.9315   0.3562
He804     He     0.3562   0.9315   0.3938
B805     B     0.1746   0.5378   0.5754
S806     S     0.1871   0.4876   0.5629
C807     C     0.1767   0.4364   0.5733
He808     He     0.1062   0.5685   0.6438
He809     He     0.1438   0.5685   0.6062
B810     B     0.0754   0.5378   0.6746
S811     S     0.0629   0.4876   0.6871
C812     C     0.0733   0.4364   0.6767
Li813     Li     0.3102   0.2725   0.5802
Be814     Be     0.3576   0.2902   0.5968
Ce815     Ce     0.3297   0.2564   0.627
Li816     Li     0.3302   0.2275   0.5602
Be817     Be     0.3468   0.2098   0.6076
Ce818     Ce     0.377   0.2436   0.5797
Li819     Li     0.3102   0.1698   0.4775
Be820     Be     0.3576   0.1532   0.4598
Ce821     Ce     0.3297   0.123   0.4936
Li822     Li     0.3302   0.1898   0.5225
Be823     Be     0.3468   0.1424   0.5402
Ce824     Ce     0.377   0.1703   0.5064
Er825     Er     0.4239   0.1892   0.5231
V826     V     0.475   0.1996   0.5127
Er827     Er     0.4239   0.2269   0.5608
V828     V     0.475   0.2373   0.5504
Li829     Li     0.1698   0.2725   0.4398
Be830     Be     0.1532   0.2902   0.3924
Ce831     Ce     0.123   0.2564   0.4203
Li832     Li     0.1898   0.2275   0.4198
Be833     Be     0.1424   0.2098   0.4032
Ce834     Ce     0.1703   0.2436   0.373
Er835     Er     0.0761   0.3108   0.4769
V836     V     0.025   0.3003   0.4873
Er837     Er     0.0761   0.2731   0.4392
V838     V     0.025   0.2627   0.4496
Er839     Er     0.2731   0.0761   0.4392
V840     V     0.2627   0.025   0.4496
Er841     Er     0.3108   0.0761   0.4769
V842     V     0.3004   0.025   0.4873
Li843     Li     0.2725   0.1698   0.4398
Be844     Be     0.2902   0.1532   0.3924
Ce845     Ce     0.2564   0.1229   0.4203
Li846     Li     0.2275   0.1898   0.4198
Be847     Be     0.2098   0.1424   0.4032
Ce848     Ce     0.2436   0.1703   0.3729
Er849     Er     0.2269   0.1892   0.3261
V850     V     0.2373   0.1996   0.275
Er851     Er     0.1892   0.2269   0.3261
V852     V     0.1996   0.2373   0.275
Er853     Er     0.3108   0.2731   0.6739
V854     V     0.3003   0.2627   0.725
Er855     Er     0.2731   0.3108   0.6739
V856     V     0.2627   0.3004   0.725
Li857     Li     0.2275   0.3302   0.5602
Be858     Be     0.2098   0.3468   0.6076
Ce859     Ce     0.2437   0.377   0.5797
Li860     Li     0.2725   0.3102   0.5802
Be861     Be     0.2902   0.3576   0.5968
Ce862     Ce     0.2563   0.3297   0.627
Li863     Li     0.1898   0.3302   0.5225
Be864     Be     0.1424   0.3468   0.5402
Ce865     Ce     0.1703   0.377   0.5064
Li866     Li     0.1698   0.3102   0.4775
Be867     Be     0.1532   0.3576   0.4598
Ce868     Ce     0.1229   0.3297   0.4936
Er869     Er     0.1892   0.4239   0.5231
V870     V     0.1996   0.475   0.5127
Er871     Er     0.2269   0.4239   0.5608
V872     V     0.2373   0.475   0.5504
S873     S     0.5124   0.4371   0.8129
C874     C     0.5636   0.4267   0.8233
B875     B     0.4622   0.4246   0.8254
B876     B     0.4622   0.3254   0.9246
S877     S     0.5124   0.3129   0.9371
C878     C     0.5636   0.3233   0.9267
He879     He     0.4315   0.3938   0.8562
He880     He     0.4315   0.3562   0.8938
S881     S     0.8129   0.0124   0.9371
C882     C     0.8233   0.0636   0.9267
B883     B     0.8254   0.9622   0.9246
S884     S     0.9371   0.0124   0.8129
C885     C     0.9267   0.0636   0.8233
B886     B     0.9246   0.9622   0.8254
He887     He     0.8562   0.9315   0.8938
He888     He     0.8938   0.9315   0.8562
Li889     Li     0.6898   0.2275   0.9198
Be890     Be     0.6424   0.2098   0.9032
Ce891     Ce     0.6703   0.2436   0.873
Li892     Li     0.6698   0.2725   0.9398
Be893     Be     0.6532   0.2902   0.8924
Ce894     Ce     0.623   0.2564   0.9203
Er895     Er     0.5761   0.3108   0.9769
V896     V     0.525   0.3003   0.9873
Er897     Er     0.5761   0.2731   0.9392
V898     V     0.525   0.2627   0.9496
Li899     Li     0.8302   0.1898   0.0225
Be900     Be     0.8468   0.1424   0.0402
Ce901     Ce     0.877   0.1703   0.0064
Li902     Li     0.8102   0.1698   0.9775
Be903     Be     0.8576   0.1532   0.9598
Ce904     Ce     0.8297   0.123   0.9936
Er905     Er     0.9239   0.2269   0.0608
V906     V     0.975   0.2373   0.0503
Er907     Er     0.9239   0.1892   0.0231
V908     V     0.975   0.1996   0.0127
Er909     Er     0.8108   0.0761   0.9769
V910     V     0.8004   0.025   0.9873
Er911     Er     0.7731   0.0761   0.9392
V912     V     0.7627   0.025   0.9496
Li913     Li     0.7725   0.1698   0.9398
Be914     Be     0.7902   0.1532   0.8924
Ce915     Ce     0.7564   0.1229   0.9203
Li916     Li     0.7275   0.1898   0.9198
Be917     Be     0.7098   0.1424   0.9032
Ce918     Ce     0.7436   0.1703   0.873
Er919     Er     0.6892   0.2269   0.8261
V920     V     0.6996   0.2373   0.775
Er921     Er     0.7269   0.1892   0.8261
V922     V     0.7373   0.1996   0.775
Li923     Li     0.6898   0.3302   0.0225
Be924     Be     0.6424   0.3468   0.0402
Ce925     Ce     0.6703   0.377   0.0064
Li926     Li     0.6698   0.3102   0.9775
Be927     Be     0.6532   0.3576   0.9598
Ce928     Ce     0.623   0.3297   0.9936
Li929     Li     0.7725   0.3102   0.0802
Be930     Be     0.7902   0.3576   0.0968
Ce931     Ce     0.7564   0.3297   0.127
Li932     Li     0.7275   0.3302   0.0602
Be933     Be     0.7098   0.3468   0.1076
Ce934     Ce     0.7436   0.377   0.0797
Er935     Er     0.7269   0.4239   0.0608
V936     V     0.7373   0.475   0.0504
Er937     Er     0.6892   0.4239   0.0231
V938     V     0.6996   0.475   0.0127
Li939     Li     0.8102   0.2725   0.0802
Be940     Be     0.8576   0.2902   0.0968
Ce941     Ce     0.8297   0.2564   0.127
Li942     Li     0.8302   0.2275   0.0602
Be943     Be     0.8468   0.2098   0.1076
Ce944     Ce     0.877   0.2436   0.0797
Er945     Er     0.7731   0.3108   0.1739
V946     V     0.7627   0.3004   0.225
Er947     Er     0.8108   0.2731   0.1739
V948     V     0.8004   0.2627   0.225
Er949     Er     0.0231   0.4239   0.6892
V950     V     0.0127   0.475   0.6996
Er951     Er     0.0608   0.4239   0.7269
V952     V     0.0503   0.475   0.7373
Li953     Li     0.0802   0.3102   0.7725
Be954     Be     0.0968   0.3576   0.7902
Ce955     Ce     0.127   0.3297   0.7564
Li956     Li     0.0602   0.3302   0.7275
Be957     Be     0.1076   0.3468   0.7098
Ce958     Ce     0.0797   0.377   0.7436
Er959     Er     0.9392   0.0761   0.7731
V960     V     0.9496   0.025   0.7627
Er961     Er     0.9769   0.0761   0.8108
V962     V     0.9873   0.025   0.8004
Li963     Li     0.0225   0.1898   0.8302
Be964     Be     0.0402   0.1424   0.8468
Ce965     Ce     0.0064   0.1703   0.877
Li966     Li     0.9775   0.1698   0.8102
Be967     Be     0.9598   0.1532   0.8576
Ce968     Ce     0.9936   0.1229   0.8297
Er969     Er     0.0608   0.2269   0.9239
V970     V     0.0504   0.2373   0.975
Er971     Er     0.0231   0.1892   0.9239
V972     V     0.0127   0.1996   0.975
Li973     Li     0.0802   0.2725   0.8102
Be974     Be     0.0968   0.2902   0.8576
Ce975     Ce     0.127   0.2564   0.8297
Li976     Li     0.0602   0.2275   0.8302
Be977     Be     0.1076   0.2098   0.8468
Ce978     Ce     0.0797   0.2436   0.877
Er979     Er     0.1739   0.2731   0.8108
V980     V     0.225   0.2627   0.8004
Er981     Er     0.1739   0.3108   0.7731
V982     V     0.225   0.3004   0.7627
Li983     Li     0.0225   0.3302   0.6898
Be984     Be     0.0402   0.3468   0.6424
Ce985     Ce     0.0064   0.377   0.6703
Li986     Li     0.9775   0.3102   0.6698
Be987     Be     0.9598   0.3576   0.6532
Ce988     Ce     0.9936   0.3297   0.623
Li989     Li     0.9198   0.2275   0.6898
Be990     Be     0.9032   0.2098   0.6424
Ce991     Ce     0.873   0.2436   0.6703
Li992     Li     0.9398   0.2725   0.6698
Be993     Be     0.8924   0.2902   0.6532
Ce994     Ce     0.9203   0.2564   0.623
Er995     Er     0.9769   0.3108   0.5761
V996     V     0.9873   0.3004   0.525
Er997     Er     0.9392   0.2731   0.5761
V998     V     0.9496   0.2627   0.525
Li999     Li     0.9198   0.1898   0.7275
Be1000     Be     0.9032   0.1424   0.7098
Ce1001     Ce     0.873   0.1703   0.7436
Li1002     Li     0.9398   0.1698   0.7725
Be1003     Be     0.8924   0.1532   0.7902
Ce1004     Ce     0.9203   0.123   0.7564
Er1005     Er     0.8261   0.1892   0.7269
V1006     V     0.775   0.1996   0.7373
Er1007     Er     0.8261   0.2269   0.6892
V1008     V     0.775   0.2373   0.6996
B1009     B     0.8254   0.4246   0.4622
C1010     C     0.8233   0.4267   0.5636
S1011     S     0.8129   0.4371   0.5124
B1012     B     0.9246   0.3254   0.4622
S1013     S     0.9371   0.3129   0.5124
C1014     C     0.9267   0.3233   0.5636
He1015     He     0.8562   0.3938   0.4315
He1016     He     0.8938   0.3562   0.4315
S1017     S     0.2376   0.4371   0.9371
C1018     C     0.1864   0.4267   0.9267
B1019     B     0.2878   0.4246   0.9246
S1020     S     0.2376   0.3129   0.8129
C1021     C     0.1864   0.3233   0.8233
B1022     B     0.2878   0.3254   0.8254
He1023     He     0.3185   0.3938   0.8938
He1024     He     0.3185   0.3562   0.8562
S1025     S     0.8129   0.3129   0.2376
C1026     C     0.8233   0.3233   0.1864
B1027     B     0.8254   0.3254   0.2878
S1028     S     0.9371   0.4371   0.2376
C1029     C     0.9267   0.4267   0.1864
B1030     B     0.9246   0.4246   0.2878
He1031     He     0.8938   0.3938   0.3185
He1032     He     0.8562   0.3562   0.3185
S1033     S     0.8129   0.7376   0.8129
C1034     C     0.8233   0.6864   0.8233
B1035     B     0.8254   0.7878   0.8254
B1036     B     0.9246   0.7878   0.9246
S1037     S     0.9371   0.7376   0.9371
C1038     C     0.9267   0.6864   0.9267
He1039     He     0.8938   0.8185   0.8938
He1040     He     0.8562   0.8185   0.8562
Er1041     Er     0.9392   0.4769   0.1739
V1042     V     0.9496   0.4873   0.225
Er1043     Er     0.9769   0.4392   0.1739
V1044     V     0.9873   0.4496   0.225
Li1045     Li     0.9198   0.5225   0.0602
Be1046     Be     0.9032   0.5402   0.1076
Ce1047     Ce     0.873   0.5064   0.0797
Li1048     Li     0.9398   0.4775   0.0802
Be1049     Be     0.8924   0.4598   0.0968
Ce1050     Ce     0.9203   0.4936   0.127
Er1051     Er     0.8261   0.5608   0.0231
V1052     V     0.775   0.5504   0.0127
Er1053     Er     0.8261   0.5231   0.0608
V1054     V     0.775   0.5127   0.0504
Er1055     Er     0.1739   0.4769   0.9392
V1056     V     0.225   0.4873   0.9496
Er1057     Er     0.1739   0.4392   0.9769
V1058     V     0.225   0.4496   0.9873
Li1059     Li     0.0602   0.5225   0.9198
Be1060     Be     0.1076   0.5402   0.9032
Ce1061     Ce     0.0797   0.5064   0.873
Li1062     Li     0.0802   0.4775   0.9398
Be1063     Be     0.0968   0.4598   0.8924
Ce1064     Ce     0.127   0.4936   0.9203
Li1065     Li     0.0225   0.5602   0.9198
Be1066     Be     0.0402   0.6076   0.9032
Ce1067     Ce     0.0064   0.5797   0.873
Li1068     Li     0.9775   0.5802   0.9398
Be1069     Be     0.9598   0.5968   0.8924
Ce1070     Ce     0.9936   0.627   0.9203
Er1071     Er     0.0231   0.5608   0.8261
V1072     V     0.0127   0.5504   0.775
Er1073     Er     0.0608   0.5231   0.8261
V1074     V     0.0504   0.5127   0.775
Li1075     Li     0.9198   0.5602   0.0225
Be1076     Be     0.9032   0.6076   0.0402
Ce1077     Ce     0.873   0.5797   0.0064
Li1078     Li     0.9398   0.5802   0.9775
Be1079     Be     0.8924   0.5968   0.9598
Ce1080     Ce     0.9203   0.627   0.9936
Er1081     Er     0.9769   0.6739   0.9392
V1082     V     0.9873   0.725   0.9496
Er1083     Er     0.9392   0.6739   0.9769
V1084     V     0.9496   0.725   0.9873
Li1085     Li     0.0802   0.4398   0.9775
Be1086     Be     0.0968   0.3924   0.9598
Ce1087     Ce     0.127   0.4203   0.9936
Li1088     Li     0.0602   0.4198   0.0225
Be1089     Be     0.1076   0.4032   0.0402
Ce1090     Ce     0.0797   0.373   0.0064
Li1091     Li     0.9775   0.4398   0.0802
Be1092     Be     0.9598   0.3924   0.0968
Ce1093     Ce     0.9936   0.4203   0.127
Li1094     Li     0.0225   0.4198   0.0602
Be1095     Be     0.0402   0.4032   0.1076
Ce1096     Ce     0.0064   0.373   0.0797
Er1097     Er     0.0608   0.3261   0.0231
V1098     V     0.0504   0.275   0.0127
Er1099     Er     0.0231   0.3261   0.0608
V1100     V     0.0127   0.275   0.0504
C1101     C     0.5733   0.3136   0.5733
S1102     S     0.5629   0.2624   0.5629
B1103     B     0.5754   0.2122   0.5754
He1104     He     0.6438   0.1815   0.6438
He1105     He     0.6062   0.1815   0.6062
C1106     C     0.6767   0.3136   0.6767
S1107     S     0.6871   0.2624   0.6871
B1108     B     0.6746   0.2122   0.6746
Li1109     Li     0.6898   0.5225   0.8302
Be1110     Be     0.6424   0.5402   0.8468
Ce1111     Ce     0.6703   0.5064   0.8771
Li1112     Li     0.6698   0.4775   0.8102
Be1113     Be     0.6532   0.4598   0.8576
Ce1114     Ce     0.623   0.4936   0.8297
Er1115     Er     0.5761   0.4769   0.8108
V1116     V     0.525   0.4873   0.8004
Er1117     Er     0.5761   0.4392   0.7731
V1118     V     0.525   0.4496   0.7627
Li1119     Li     0.6698   0.4398   0.7725
Be1120     Be     0.6532   0.3924   0.7902
Ce1121     Ce     0.623   0.4203   0.7564
Li1122     Li     0.6898   0.4198   0.7275
Be1123     Be     0.6424   0.4032   0.7098
Ce1124     Ce     0.6703   0.3729   0.7436
Er1125     Er     0.7269   0.3261   0.6892
V1126     V     0.7373   0.275   0.6996
Er1127     Er     0.6892   0.3261   0.7269
V1128     V     0.6996   0.275   0.7373
Li1129     Li     0.7725   0.4398   0.6698
Be1130     Be     0.7902   0.3924   0.6532
Ce1131     Ce     0.7564   0.4203   0.623
Li1132     Li     0.7275   0.4198   0.6898
Be1133     Be     0.7098   0.4032   0.6424
Ce1134     Ce     0.7436   0.373   0.6703
Er1135     Er     0.7731   0.4392   0.5761
V1136     V     0.7627   0.4496   0.525
Er1137     Er     0.8108   0.4769   0.5761
V1138     V     0.8004   0.4873   0.525
Li1139     Li     0.8302   0.5225   0.6898
Be1140     Be     0.8468   0.5402   0.6424
Ce1141     Ce     0.877   0.5064   0.6703
Li1142     Li     0.8102   0.4775   0.6698
Be1143     Be     0.8576   0.4598   0.6532
Ce1144     Ce     0.8297   0.4936   0.6229
Li1145     Li     0.8102   0.5802   0.7725
Be1146     Be     0.8576   0.5968   0.7902
Ce1147     Ce     0.8297   0.627   0.7564
Li1148     Li     0.8302   0.5602   0.7275
Be1149     Be     0.8468   0.6076   0.7098
Ce1150     Ce     0.877   0.5797   0.7436
Er1151     Er     0.9239   0.5608   0.7269
V1152     V     0.975   0.5504   0.7373
Er1153     Er     0.9239   0.5231   0.6892
V1154     V     0.975   0.5127   0.6996
Er1155     Er     0.8108   0.6739   0.7731
V1156     V     0.8004   0.725   0.7627
Er1157     Er     0.7731   0.6739   0.8108
V1158     V     0.7627   0.725   0.8004
Li1159     Li     0.7725   0.5802   0.8102
Be1160     Be     0.7902   0.5968   0.8576
Ce1161     Ce     0.7564   0.627   0.8297
Li1162     Li     0.7275   0.5602   0.8302
Be1163     Be     0.7098   0.6076   0.8468
Ce1164     Ce     0.7436   0.5797   0.877
Er1165     Er     0.6892   0.5231   0.9239
V1166     V     0.6996   0.5127   0.975
Er1167     Er     0.7269   0.5608   0.9239
V1168     V     0.7373   0.5504   0.975
S1169     S     0.4371   0.8129   0.5124
C1170     C     0.4267   0.8233   0.5636
B1171     B     0.4246   0.8254   0.4622
B1172     B     0.3254   0.9246   0.4622
S1173     S     0.3129   0.9371   0.5124
C1174     C     0.3233   0.9267   0.5636
He1175     He     0.3938   0.8562   0.4315
He1176     He     0.3562   0.8938   0.4315
Er1177     Er     0.4769   0.4392   0.6739
V1178     V     0.4873   0.4496   0.725
Er1179     Er     0.4392   0.4769   0.6739
V1180     V     0.4496   0.4873   0.725
Li1181     Li     0.5225   0.4198   0.5602
Be1182     Be     0.5402   0.4032   0.6076
Ce1183     Ce     0.5064   0.373   0.5797
Li1184     Li     0.4775   0.4398   0.5802
Be1185     Be     0.4598   0.3924   0.5968
Ce1186     Ce     0.4936   0.4203   0.627
Li1187     Li     0.5602   0.4198   0.5225
Be1188     Be     0.6076   0.4032   0.5402
Ce1189     Ce     0.5797   0.373   0.5064
Li1190     Li     0.5802   0.4398   0.4775
Be1191     Be     0.5968   0.3924   0.4598
Ce1192     Ce     0.627   0.4203   0.4936
Er1193     Er     0.5231   0.3261   0.5608
V1194     V     0.5127   0.275   0.5504
Er1195     Er     0.5608   0.3261   0.5231
V1196     V     0.5504   0.275   0.5127
Er1197     Er     0.6739   0.4392   0.4769
V1198     V     0.725   0.4496   0.4873
Er1199     Er     0.6739   0.4769   0.4392
V1200     V     0.725   0.4873   0.4496
Li1201     Li     0.5602   0.5225   0.4198
Be1202     Be     0.6076   0.5402   0.4032
Ce1203     Ce     0.5797   0.5064   0.373
Li1204     Li     0.5802   0.4775   0.4398
Be1205     Be     0.5968   0.4598   0.3924
Ce1206     Ce     0.627   0.4936   0.4203
Li1207     Li     0.5225   0.5602   0.4198
Be1208     Be     0.5402   0.6076   0.4032
Ce1209     Ce     0.5064   0.5797   0.373
Li1210     Li     0.4775   0.5802   0.4398
Be1211     Be     0.4598   0.5968   0.3924
Ce1212     Ce     0.4936   0.627   0.4203
Er1213     Er     0.5608   0.5231   0.3261
V1214     V     0.5504   0.5127   0.275
Er1215     Er     0.5231   0.5608   0.3261
V1216     V     0.5127   0.5504   0.275
Er1217     Er     0.4769   0.6739   0.4392
V1218     V     0.4873   0.725   0.4496
Er1219     Er     0.4392   0.6739   0.4769
V1220     V     0.4496   0.725   0.4873
Li1221     Li     0.4198   0.5602   0.5225
Be1222     Be     0.4032   0.6076   0.5402
Ce1223     Ce     0.373   0.5797   0.5064
Li1224     Li     0.4398   0.5802   0.4775
Be1225     Be     0.3924   0.5968   0.4598
Ce1226     Ce     0.4203   0.627   0.4936
Li1227     Li     0.4198   0.5225   0.5602
Be1228     Be     0.4032   0.5402   0.6076
Ce1229     Ce     0.373   0.5064   0.5797
Li1230     Li     0.4398   0.4775   0.5802
Be1231     Be     0.3924   0.4598   0.5968
Ce1232     Ce     0.4203   0.4936   0.627
Er1233     Er     0.3261   0.5608   0.5231
V1234     V     0.275   0.5504   0.5127
Er1235     Er     0.3261   0.5231   0.5608
V1236     V     0.275   0.5127   0.5504
B1237     B     0.0754   0.1746   0.0378
S1238     S     0.0629   0.1871   0.9876
C1239     C     0.0733   0.1767   0.9364
He1240     He     0.1438   0.1062   0.0685
He1241     He     0.1062   0.1438   0.0685
C1242     C     0.1767   0.0733   0.9364
S1243     S     0.1871   0.0629   0.9876
B1244     B     0.1746   0.0754   0.0378
C1245     C     0.4364   0.0733   0.6767
S1246     S     0.4876   0.0629   0.6871
B1247     B     0.5378   0.0754   0.6746
He1248     He     0.5685   0.1438   0.6062
He1249     He     0.5685   0.1062   0.6438
C1250     C     0.4364   0.1767   0.5733
S1251     S     0.4876   0.1871   0.5629
B1252     B     0.5378   0.1746   0.5754
C1253     C     0.3136   0.5733   0.5733
S1254     S     0.2624   0.5629   0.5629
B1255     B     0.2122   0.5754   0.5754
C1256     C     0.3136   0.6767   0.6767
S1257     S     0.2624   0.6871   0.6871
B1258     B     0.2122   0.6746   0.6746
He1259     He     0.1815   0.6438   0.6438
He1260     He     0.1815   0.6062   0.6062
B1261     B     0.7878   0.9246   0.9246
S1262     S     0.7376   0.9371   0.9371
C1263     C     0.6864   0.9267   0.9267
S1264     S     0.7376   0.8129   0.8129
C1265     C     0.6864   0.8233   0.8233
B1266     B     0.7878   0.8254   0.8254
He1267     He     0.8185   0.8938   0.8938
He1268     He     0.8185   0.8562   0.8562
Er1269     Er     0.4769   0.1739   0.9392
V1270     V     0.4873   0.225   0.9496
Er1271     Er     0.4392   0.1739   0.9769
V1272     V     0.4496   0.225   0.9873
Li1273     Li     0.5225   0.0602   0.9198
Be1274     Be     0.5402   0.1076   0.9032
Ce1275     Ce     0.5064   0.0797   0.873
Li1276     Li     0.4775   0.0802   0.9398
Be1277     Be     0.4598   0.0968   0.8924
Ce1278     Ce     0.4936   0.127   0.9203
Li1279     Li     0.5602   0.0225   0.9198
Be1280     Be     0.6076   0.0402   0.9032
Ce1281     Ce     0.5797   0.0064   0.873
Li1282     Li     0.5802   0.9775   0.9398
Be1283     Be     0.5968   0.9598   0.8924
Ce1284     Ce     0.627   0.9936   0.9203
Er1285     Er     0.5608   0.0231   0.8261
V1286     V     0.5504   0.0127   0.775
Er1287     Er     0.5231   0.0608   0.8261
V1288     V     0.5127   0.0504   0.775
Er1289     Er     0.6739   0.9769   0.9392
V1290     V     0.725   0.9873   0.9496
Er1291     Er     0.6739   0.9392   0.9769
V1292     V     0.725   0.9496   0.9873
Er1293     Er     0.4769   0.9392   0.1739
V1294     V     0.4873   0.9496   0.225
Er1295     Er     0.4392   0.9769   0.1739
V1296     V     0.4496   0.9873   0.225
Li1297     Li     0.5225   0.9198   0.0602
Be1298     Be     0.5402   0.9032   0.1076
Ce1299     Ce     0.5064   0.873   0.0797
Li1300     Li     0.4775   0.9398   0.0802
Be1301     Be     0.4598   0.8924   0.0968
Ce1302     Ce     0.4936   0.9203   0.127
Li1303     Li     0.5602   0.9198   0.0225
Be1304     Be     0.6076   0.9032   0.0402
Ce1305     Ce     0.5797   0.873   0.0064
Li1306     Li     0.5802   0.9398   0.9775
Be1307     Be     0.5968   0.8924   0.9598
Ce1308     Ce     0.627   0.9203   0.9936
Er1309     Er     0.5608   0.8261   0.0231
V1310     V     0.5504   0.775   0.0127
Er1311     Er     0.5231   0.8261   0.0608
V1312     V     0.5127   0.775   0.0504
Li1313     Li     0.4398   0.0802   0.9775
Be1314     Be     0.3924   0.0968   0.9598
Ce1315     Ce     0.4203   0.127   0.9936
Li1316     Li     0.4198   0.0602   0.0225
Be1317     Be     0.4032   0.1076   0.0402
Ce1318     Ce     0.373   0.0797   0.0064
Li1319     Li     0.4398   0.9775   0.0802
Be1320     Be     0.3924   0.9598   0.0968
Ce1321     Ce     0.4203   0.9936   0.127
Li1322     Li     0.4198   0.0225   0.0602
Be1323     Be     0.4032   0.0402   0.1076
Ce1324     Ce     0.373   0.0064   0.0797
Er1325     Er     0.3261   0.0608   0.0231
V1326     V     0.275   0.0504   0.0127
Er1327     Er     0.3261   0.0231   0.0608
V1328     V     0.275   0.0127   0.0504
S1329     S     0.4371   0.2376   0.9371
C1330     C     0.4267   0.1864   0.9267
B1331     B     0.4246   0.2878   0.9246
S1332     S     0.3129   0.2376   0.8129
C1333     C     0.3233   0.1864   0.8233
B1334     B     0.3254   0.2878   0.8254
He1335     He     0.3938   0.3185   0.8938
He1336     He     0.3562   0.3185   0.8562
Li1337     Li     0.2275   0.9198   0.6898
Be1338     Be     0.2098   0.9032   0.6424
Ce1339     Ce     0.2437   0.873   0.6703
Li1340     Li     0.2725   0.9398   0.6698
Be1341     Be     0.2902   0.8924   0.6532
Ce1342     Ce     0.2563   0.9203   0.623
Er1343     Er     0.3108   0.9769   0.5761
V1344     V     0.3003   0.9873   0.525
Er1345     Er     0.2731   0.9392   0.5761
V1346     V     0.2627   0.9496   0.525
Li1347     Li     0.3302   0.0225   0.6898
Be1348     Be     0.3468   0.0402   0.6424
Ce1349     Ce     0.377   0.0064   0.6703
Li1350     Li     0.3102   0.9775   0.6698
Be1351     Be     0.3576   0.9598   0.6532
Ce1352     Ce     0.3297   0.9936   0.6229
Li1353     Li     0.3102   0.0802   0.7725
Be1354     Be     0.3576   0.0968   0.7902
Ce1355     Ce     0.3297   0.127   0.7564
Li1356     Li     0.3302   0.0602   0.7275
Be1357     Be     0.3468   0.1076   0.7098
Ce1358     Ce     0.377   0.0797   0.7436
Er1359     Er     0.4239   0.0608   0.7269
V1360     V     0.475   0.0504   0.7373
Er1361     Er     0.4239   0.0231   0.6892
V1362     V     0.475   0.0127   0.6996
Li1363     Li     0.1898   0.0225   0.8302
Be1364     Be     0.1424   0.0402   0.8468
Ce1365     Ce     0.1703   0.0064   0.8771
Li1366     Li     0.1698   0.9775   0.8102
Be1367     Be     0.1532   0.9598   0.8576
Ce1368     Ce     0.123   0.9936   0.8297
Er1369     Er     0.3108   0.1739   0.7731
V1370     V     0.3004   0.225   0.7627
Er1371     Er     0.2731   0.1739   0.8108
V1372     V     0.2627   0.225   0.8004
Li1373     Li     0.2725   0.0802   0.8102
Be1374     Be     0.2902   0.0968   0.8576
Ce1375     Ce     0.2564   0.127   0.8297
Li1376     Li     0.2275   0.0602   0.8302
Be1377     Be     0.2098   0.1076   0.8468
Ce1378     Ce     0.2436   0.0797   0.877
Er1379     Er     0.2269   0.0608   0.9239
V1380     V     0.2373   0.0504   0.975
Er1381     Er     0.1892   0.0231   0.9239
V1382     V     0.1996   0.0127   0.975
Er1383     Er     0.0761   0.9769   0.8108
V1384     V     0.025   0.9873   0.8004
Er1385     Er     0.0761   0.9392   0.7731
V1386     V     0.025   0.9496   0.7627
Li1387     Li     0.1698   0.9398   0.7725
Be1388     Be     0.1532   0.8924   0.7902
Ce1389     Ce     0.1229   0.9203   0.7564
Li1390     Li     0.1898   0.9198   0.7275
Be1391     Be     0.1424   0.9032   0.7098
Ce1392     Ce     0.1703   0.873   0.7436
Er1393     Er     0.2269   0.8261   0.6892
V1394     V     0.2373   0.775   0.6996
Er1395     Er     0.1892   0.8261   0.7269
V1396     V     0.1996   0.775   0.7373
C1397     C     0.5733   0.6767   0.9364
S1398     S     0.5629   0.6871   0.9876
B1399     B     0.5754   0.6746   0.0378
S1400     S     0.6871   0.5629   0.9876
C1401     C     0.6767   0.5733   0.9364
B1402     B     0.6746   0.5754   0.0378
He1403     He     0.6438   0.6062   0.0685
He1404     He     0.6062   0.6438   0.0685
B1405     B     0.3254   0.4622   0.9246
S1406     S     0.3129   0.5124   0.9371
C1407     C     0.3233   0.5636   0.9267
B1408     B     0.4246   0.4622   0.8254
S1409     S     0.4371   0.5124   0.8129
C1410     C     0.4267   0.5636   0.8233
He1411     He     0.3562   0.4315   0.8938
He1412     He     0.3938   0.4315   0.8562
S1413     S     0.1871   0.6871   0.7624
C1414     C     0.1767   0.6767   0.8136
B1415     B     0.1746   0.6746   0.7122
S1416     S     0.0629   0.5629   0.7624
C1417     C     0.0733   0.5733   0.8136
B1418     B     0.0754   0.5754   0.7122
He1419     He     0.1438   0.6438   0.6815
He1420     He     0.1062   0.6062   0.6815
S1421     S     0.4371   0.9371   0.2376
C1422     C     0.4267   0.9267   0.1864
B1423     B     0.4246   0.9246   0.2878
B1424     B     0.3254   0.8254   0.2878
S1425     S     0.3129   0.8129   0.2376
C1426     C     0.3233   0.8233   0.1864
He1427     He     0.3938   0.8938   0.3185
He1428     He     0.3562   0.8562   0.3185
S1429     S     0.0124   0.8129   0.9371
C1430     C     0.0636   0.8233   0.9267
B1431     B     0.9622   0.8254   0.9246
S1432     S     0.0124   0.9371   0.8129
C1433     C     0.0636   0.9267   0.8233
B1434     B     0.9622   0.9246   0.8254
He1435     He     0.9315   0.8938   0.8562
He1436     He     0.9315   0.8562   0.8938
Li1437     Li     0.3102   0.7725   0.0802
Be1438     Be     0.3576   0.7902   0.0968
Ce1439     Ce     0.3297   0.7564   0.127
Li1440     Li     0.3302   0.7275   0.0602
Be1441     Be     0.3468   0.7098   0.1076
Ce1442     Ce     0.377   0.7436   0.0797
Er1443     Er     0.4239   0.6892   0.0231
V1444     V     0.475   0.6996   0.0127
Er1445     Er     0.4239   0.7269   0.0608
V1446     V     0.475   0.7373   0.0503
Er1447     Er     0.3108   0.7731   0.1739
V1448     V     0.3003   0.7627   0.225
Er1449     Er     0.2731   0.8108   0.1739
V1450     V     0.2627   0.8004   0.225
Er1451     Er     0.0761   0.7731   0.9392
V1452     V     0.025   0.7627   0.9496
Er1453     Er     0.0761   0.8108   0.9769
V1454     V     0.025   0.8004   0.9873
Li1455     Li     0.1898   0.8302   0.0225
Be1456     Be     0.1424   0.8468   0.0402
Ce1457     Ce     0.1703   0.877   0.0064
Li1458     Li     0.1698   0.8102   0.9775
Be1459     Be     0.1532   0.8576   0.9598
Ce1460     Ce     0.1229   0.8297   0.9936
Li1461     Li     0.2275   0.8302   0.0602
Be1462     Be     0.2098   0.8468   0.1076
Ce1463     Ce     0.2437   0.877   0.0797
Li1464     Li     0.2725   0.8102   0.0802
Be1465     Be     0.2902   0.8576   0.0968
Ce1466     Ce     0.2563   0.8297   0.127
Er1467     Er     0.1892   0.9239   0.0231
V1468     V     0.1996   0.975   0.0127
Er1469     Er     0.2269   0.9239   0.0608
V1470     V     0.2373   0.975   0.0504
Li1471     Li     0.3302   0.6898   0.0225
Be1472     Be     0.3468   0.6424   0.0402
Ce1473     Ce     0.377   0.6703   0.0064
Li1474     Li     0.3102   0.6698   0.9775
Be1475     Be     0.3576   0.6532   0.9598
Ce1476     Ce     0.3297   0.623   0.9936
Er1477     Er     0.2731   0.5761   0.9392
V1478     V     0.2627   0.525   0.9496
Er1479     Er     0.3108   0.5761   0.9769
V1480     V     0.3004   0.525   0.9873
Li1481     Li     0.2275   0.6898   0.9198
Be1482     Be     0.2098   0.6424   0.9032
Ce1483     Ce     0.2436   0.6703   0.873
Li1484     Li     0.2725   0.6698   0.9398
Be1485     Be     0.2902   0.6532   0.8924
Ce1486     Ce     0.2564   0.623   0.9203
Li1487     Li     0.1698   0.7725   0.9398
Be1488     Be     0.1532   0.7902   0.8924
Ce1489     Ce     0.123   0.7564   0.9203
Li1490     Li     0.1898   0.7275   0.9198
Be1491     Be     0.1424   0.7098   0.9032
Ce1492     Ce     0.1703   0.7436   0.873
Er1493     Er     0.2269   0.6892   0.8261
V1494     V     0.2373   0.6996   0.775
Er1495     Er     0.1892   0.7269   0.8261
V1496     V     0.1996   0.7373   0.775
Li1497     Li     0.5802   0.8102   0.7725
Be1498     Be     0.5968   0.8576   0.7902
Ce1499     Ce     0.627   0.8297   0.7564
Li1500     Li     0.5602   0.8302   0.7275
Be1501     Be     0.6076   0.8468   0.7098
Ce1502     Ce     0.5797   0.877   0.7436
Er1503     Er     0.5231   0.9239   0.6892
V1504     V     0.5127   0.975   0.6996
Er1505     Er     0.5608   0.9239   0.7269
V1506     V     0.5504   0.975   0.7373
Er1507     Er     0.6739   0.7731   0.8108
V1508     V     0.725   0.7627   0.8004
Er1509     Er     0.6739   0.8108   0.7731
V1510     V     0.725   0.8004   0.7627
Li1511     Li     0.5602   0.7275   0.8302
Be1512     Be     0.6076   0.7098   0.8468
Ce1513     Ce     0.5797   0.7436   0.877
Li1514     Li     0.5802   0.7725   0.8102
Be1515     Be     0.5968   0.7902   0.8576
Ce1516     Ce     0.627   0.7564   0.8297
Er1517     Er     0.5608   0.7269   0.9239
V1518     V     0.5504   0.7373   0.975
Er1519     Er     0.5231   0.6892   0.9239
V1520     V     0.5127   0.6996   0.975
Li1521     Li     0.5225   0.6898   0.8302
Be1522     Be     0.5402   0.6424   0.8468
Ce1523     Ce     0.5064   0.6703   0.877
Li1524     Li     0.4775   0.6698   0.8102
Be1525     Be     0.4598   0.6532   0.8576
Ce1526     Ce     0.4936   0.623   0.8297
Li1527     Li     0.4198   0.6898   0.7275
Be1528     Be     0.4032   0.6424   0.7098
Ce1529     Ce     0.373   0.6703   0.7436
Li1530     Li     0.4398   0.6698   0.7725
Be1531     Be     0.3924   0.6532   0.7902
Ce1532     Ce     0.4203   0.623   0.7564
Er1533     Er     0.4392   0.5761   0.7731
V1534     V     0.4496   0.525   0.7627
Er1535     Er     0.4769   0.5761   0.8108
V1536     V     0.4873   0.525   0.8004
Er1537     Er     0.3261   0.6892   0.7269
V1538     V     0.275   0.6996   0.7373
Er1539     Er     0.3261   0.7269   0.6892
V1540     V     0.275   0.7373   0.6996
Li1541     Li     0.4398   0.7725   0.6698
Be1542     Be     0.3924   0.7902   0.6532
Ce1543     Ce     0.4203   0.7564   0.623
Li1544     Li     0.4198   0.7275   0.6898
Be1545     Be     0.4032   0.7098   0.6424
Ce1546     Ce     0.373   0.7436   0.6703
Li1547     Li     0.5225   0.8302   0.6898
Be1548     Be     0.5402   0.8468   0.6424
Ce1549     Ce     0.5064   0.877   0.6703
Li1550     Li     0.4775   0.8102   0.6698
Be1551     Be     0.4598   0.8576   0.6532
Ce1552     Ce     0.4936   0.8297   0.623
Er1553     Er     0.4769   0.8108   0.5761
V1554     V     0.4873   0.8004   0.525
Er1555     Er     0.4392   0.7731   0.5761
V1556     V     0.4496   0.7627   0.525
C1557     C     0.3233   0.4267   0.0636
S1558     S     0.3129   0.4371   0.0124
B1559     B     0.3254   0.4246   0.9622
C1560     C     0.4267   0.3233   0.0636
S1561     S     0.4371   0.3129   0.0124
B1562     B     0.4246   0.3254   0.9622
He1563     He     0.3938   0.3562   0.9315
He1564     He     0.3562   0.3938   0.9315
B1565     B     0.7878   0.3254   0.3254
C1566     C     0.6864   0.3233   0.3233
S1567     S     0.7376   0.3129   0.3129
B1568     B     0.7878   0.4246   0.4246
C1569     C     0.6864   0.4267   0.4267
S1570     S     0.7376   0.4371   0.4371
He1571     He     0.8185   0.3938   0.3938
He1572     He     0.8185   0.3562   0.3562
Er1573     Er     0.3261   0.2269   0.1892
V1574     V     0.275   0.2373   0.1996
Er1575     Er     0.3261   0.1892   0.2269
V1576     V     0.275   0.1996   0.2373
Li1577     Li     0.4398   0.2725   0.1698
Be1578     Be     0.3924   0.2902   0.1532
Ce1579     Ce     0.4203   0.2564   0.1229
Li1580     Li     0.4198   0.2275   0.1898
Be1581     Be     0.4032   0.2098   0.1424
Ce1582     Ce     0.373   0.2436   0.1703
Er1583     Er     0.4769   0.3108   0.0761
V1584     V     0.4873   0.3004   0.025
Er1585     Er     0.4392   0.2731   0.0761
V1586     V     0.4496   0.2627   0.025
Er1587     Er     0.6739   0.3108   0.2731
V1588     V     0.725   0.3004   0.2627
Er1589     Er     0.6739   0.2731   0.3108
V1590     V     0.725   0.2627   0.3004
Li1591     Li     0.5225   0.3302   0.1898
Be1592     Be     0.5402   0.3468   0.1424
Ce1593     Ce     0.5064   0.377   0.1703
Li1594     Li     0.4775   0.3102   0.1698
Be1595     Be     0.4598   0.3576   0.1532
Ce1596     Ce     0.4936   0.3297   0.123
Li1597     Li     0.5802   0.3102   0.2725
Be1598     Be     0.5968   0.3576   0.2902
Ce1599     Ce     0.627   0.3297   0.2564
Li1600     Li     0.5602   0.3302   0.2275
Be1601     Be     0.6076   0.3468   0.2098
Ce1602     Ce     0.5797   0.377   0.2436
Er1603     Er     0.5608   0.4239   0.2269
V1604     V     0.5504   0.475   0.2373
Er1605     Er     0.5231   0.4239   0.1892
V1606     V     0.5127   0.475   0.1996
Li1607     Li     0.5225   0.1898   0.3302
Be1608     Be     0.5402   0.1424   0.3468
Ce1609     Ce     0.5064   0.1703   0.377
Li1610     Li     0.4775   0.1698   0.3102
Be1611     Be     0.4598   0.1532   0.3576
Ce1612     Ce     0.4936   0.1229   0.3297
Li1613     Li     0.5802   0.2725   0.3102
Be1614     Be     0.5968   0.2902   0.3576
Ce1615     Ce     0.627   0.2564   0.3297
Li1616     Li     0.5602   0.2275   0.3302
Be1617     Be     0.6076   0.2098   0.3468
Ce1618     Ce     0.5797   0.2436   0.377
Er1619     Er     0.5608   0.2269   0.4239
V1620     V     0.5504   0.2373   0.475
Er1621     Er     0.5231   0.1892   0.4239
V1622     V     0.5127   0.1996   0.475
Li1623     Li     0.4398   0.1698   0.2725
Be1624     Be     0.3924   0.1532   0.2902
Ce1625     Ce     0.4203   0.123   0.2564
Li1626     Li     0.4198   0.1898   0.2275
Be1627     Be     0.4032   0.1424   0.2098
Ce1628     Ce     0.373   0.1703   0.2437
Er1629     Er     0.4769   0.0761   0.3108
V1630     V     0.4873   0.025   0.3004
Er1631     Er     0.4392   0.0761   0.2731
V1632     V     0.4496   0.025   0.2627
loop_
_geom_bond_atom_site_label_1
_geom_bond_atom_site_label_2
_geom_bond_distance
_geom_bond_site_symmetry_2
_ccdc_geom_bond_type
Ti1     Ti2    9.998   .     S
Ti1     H6    10.0   .     S
Ti1     H4    10.0   .     S
Ti1     C359    10.001   .     S
Ti2     H5    10.0   .     S
Ti2     H3    10.0   .     S
Ti2     C353    10.001   .     S
H3     Be437    10.001   .     S
H3     H4    10.0   .     S
H3     H5    10.0   .     S
H4     Be867    10.001   .     S
H4     H6    10.0   .     S
H5     Be420    10.001   .     S
H5     H6    10.0   .     S
H6     Be830    10.001   .     S
Ti7     Ti8    9.998   .     S
Ti7     H11    10.0   .     S
Ti7     H10    10.0   .     S
Ti7     C878    10.001   .     S
Ti8     H9    10.0   .     S
Ti8     H12    10.0   .     S
Ti8     C874    10.001   .     S
H9     Be1113    10.001   .     S
H9     H10    10.0   .     S
H9     H12    10.0   .     S
H10     Be927    10.001   .     S
H10     H11    10.0   .     S
H11     Be893    10.001   .     S
H11     H12    10.0   .     S
H12     Be1120    10.001   .     S
Ti13     Ti14    9.998   .     S
Ti13     H15    10.0   .     S
Ti13     H18    10.0   .     S
Ti13     C1430    10.001   .     S
Ti14     H16    10.0   .     S
Ti14     H17    10.0   .     S
Ti14     C1433    10.001   .     S
H15     Be1459    10.001   .     S
H15     H18    10.0   .     S
H15     H16    10.0   .     S
H16     Be1367    10.001   .     S
H16     H17    10.0   .     S
H17     Be1388    10.001   .     S
H17     H18    10.0   .     S
H18     Be1488    10.001   .     S
Ti19     Ti20    9.998   .     S
Ti19     H23    10.0   .     S
Ti19     H24    10.0   .     S
Ti19     C1557    10.001   .     S
Ti20     H22    10.0   .     S
Ti20     H21    10.0   .     S
Ti20     C1560    10.001   .     S
H21     Be1595    10.001   .     S
H21     H23    10.0   .     S
H21     H22    10.0   .     S
H22     Be1578    10.001   .     S
H22     H24    10.0   .     S
H23     Be457    10.001   .     S
H23     H24    10.0   .     S
H24     Be414    10.001   .     S
Ti25     Ti26    9.998   .     S
Ti25     H28    10.0   .     S
Ti25     H27    10.0   .     S
Ti25     C1018    10.001   .     S
Ti26     H29    10.0   .     S
Ti26     H30    10.0   .     S
Ti26     C1021    10.001   .     S
H27     Be1086    10.001   .     S
H27     H28    10.0   .     S
H27     H29    10.0   .     S
H28     Be1063    10.001   .     S
H28     H30    10.0   .     S
H29     Be974    10.001   .     S
H29     H30    10.0   .     S
H30     Be954    10.001   .     S
Ti31     Ti32    9.998   .     S
Ti31     H34    10.0   .     S
Ti31     H35    10.0   .     S
Ti31     C1407    10.001   .     S
Ti32     H33    10.0   .     S
Ti32     H36    10.0   .     S
Ti32     C1410    10.001   .     S
H33     Be1531    10.001   .     S
H33     H36    10.0   .     S
H33     H34    10.0   .     S
H34     Be1485    10.001   .     S
H34     H35    10.0   .     S
H35     Be1475    10.001   .     S
H35     H36    10.0   .     S
H36     Be1525    10.001   .     S
Ti37     Ti38    9.998   .     S
Ti37     H41    10.0   .     S
Ti37     H42    10.0   .     S
Ti37     C538    10.001   .     S
Ti38     H40    10.0   .     S
Ti38     H39    10.0   .     S
Ti38     C543    10.001   .     S
H39     Be629    10.001   .     S
H39     H40    10.0   .     S
H39     H41    10.0   .     S
H40     Be620    10.001   .     S
H40     H42    10.0   .     S
H41     Be1304    10.001   .     S
H41     H42    10.0   .     S
H42     Be1298    10.001   .     S
Ti43     Ti44    9.998   .     S
Ti43     H46    10.0   .     S
Ti43     H48    10.0   .     S
Ti43     C290    10.001   .     S
Ti44     H47    10.0   .     S
Ti44     H45    10.0   .     S
Ti44     C293    10.001   .     S
H45     Be917    10.001   .     S
H45     H47    10.0   .     S
H45     H46    10.0   .     S
H46     Be1280    10.001   .     S
H46     H48    10.0   .     S
H47     Be890    10.001   .     S
H47     H48    10.0   .     S
H48     Be1274    10.001   .     S
Ti49     Ti50    9.998   .     S
Ti49     H52    10.0   .     S
Ti49     H54    10.0   .     S
Ti49     C383    10.001   .     S
Ti50     H51    10.0   .     S
Ti50     H53    10.0   .     S
Ti50     C378    10.001   .     S
H51     Be1000    10.001   .     S
H51     H53    10.0   .     S
H51     H52    10.0   .     S
H52     Be750    10.001   .     S
H52     H54    10.0   .     S
H53     Be990    10.001   .     S
H53     H54    10.0   .     S
H54     Be759    10.001   .     S
Ti55     Ti56    9.998   .     S
Ti55     H58    10.0   .     S
Ti55     H60    10.0   .     S
Ti55     C301    10.001   .     S
Ti56     H59    10.0   .     S
Ti56     H57    10.0   .     S
Ti56     C298    10.001   .     S
H57     Be1391    10.001   .     S
H57     H59    10.0   .     S
H57     H58    10.0   .     S
H58     Be732    10.001   .     S
H58     H60    10.0   .     S
H59     Be1338    10.001   .     S
H59     H60    10.0   .     S
H60     Be726    10.001   .     S
Ti61     Ti62    9.998   .     S
Ti61     H64    10.0   .     S
Ti61     H66    10.0   .     S
Ti61     C1417    10.001   .     S
Ti62     H63    10.0   .     S
Ti62     H65    10.0   .     S
Ti62     C1414    10.001   .     S
H63     Be1491    10.001   .     S
H63     H65    10.0   .     S
H63     H64    10.0   .     S
H64     Be1066    10.001   .     S
H64     H66    10.0   .     S
H65     Be1482    10.001   .     S
H65     H66    10.0   .     S
H66     Be1060    10.001   .     S
Ti67     Ti68    9.998   .     S
Ti67     H72    10.0   .     S
Ti67     H70    10.0   .     S
Ti67     C406    10.001   .     S
Ti68     H69    10.0   .     S
Ti68     H71    10.0   .     S
Ti68     C403    10.001   .     S
H69     Be707    10.001   .     S
H69     H70    10.0   .     S
H69     H71    10.0   .     S
H70     Be443    10.001   .     S
H70     H72    10.0   .     S
H71     Be698    10.001   .     S
H71     H72    10.0   .     S
H72     Be434    10.001   .     S
Ti73     Ti74    9.998   .     S
Ti73     H76    10.0   .     S
Ti73     H75    10.0   .     S
Ti73     C1569    10.001   .     S
Ti74     H77    10.0   .     S
Ti74     H78    10.0   .     S
Ti74     C1566    10.001   .     S
H75     Be1205    10.001   .     S
H75     H76    10.0   .     S
H75     H78    10.0   .     S
H76     Be1191    10.001   .     S
H76     H77    10.0   .     S
H77     Be1614    10.001   .     S
H77     H78    10.0   .     S
H78     Be1598    10.001   .     S
Ti79     Ti80    9.998   .     S
Ti79     H82    10.0   .     S
Ti79     H81    10.0   .     S
Ti79     C327    10.001   .     S
Ti80     H83    10.0   .     S
Ti80     H84    10.0   .     S
Ti80     C323    10.001   .     S
H81     Be1462    10.001   .     S
H81     H82    10.0   .     S
H81     H84    10.0   .     S
H82     Be1456    10.001   .     S
H82     H83    10.0   .     S
H83     Be654    10.001   .     S
H83     H84    10.0   .     S
H84     Be681    10.001   .     S
Ti85     Ti86    9.998   .     S
Ti85     H87    10.0   .     S
Ti85     H90    10.0   .     S
Ti85     C1242    10.001   .     S
Ti86     H89    10.0   .     S
Ti86     H88    10.0   .     S
Ti86     C1239    10.001   .     S
H87     Be1364    10.001   .     S
H87     H90    10.0   .     S
H87     H88    10.0   .     S
H88     Be964    10.001   .     S
H88     H89    10.0   .     S
H89     Be977    10.001   .     S
H89     H90    10.0   .     S
H90     Be1377    10.001   .     S
Ti91     Ti92    9.998   .     S
Ti91     H96    10.0   .     S
Ti91     H93    10.0   .     S
Ti91     C807    10.001   .     S
Ti92     H94    10.0   .     S
Ti92     H95    10.0   .     S
Ti92     C812    10.001   .     S
H93     Be858    10.001   .     S
H93     H94    10.0   .     S
H93     H96    10.0   .     S
H94     Be957    10.001   .     S
H94     H95    10.0   .     S
H95     Be984    10.001   .     S
H95     H96    10.0   .     S
H96     Be864    10.001   .     S
Ti97     Ti98    9.998   .     S
Ti97     H101    10.0   .     S
Ti97     H102    10.0   .     S
Ti97     C398    10.001   .     S
Ti98     H100    10.0   .     S
Ti98     H99    10.0   .     S
Ti98     C393    10.001   .     S
H99     Be1095    10.001   .     S
H99     H101    10.0   .     S
H99     H100    10.0   .     S
H100     Be1089    10.001   .     S
H100     H102    10.0   .     S
H101     Be423    10.001   .     S
H101     H102    10.0   .     S
H102     Be417    10.001   .     S
Ti103     Ti104    9.998   .     S
Ti103     H106    10.0   .     S
Ti103     H105    10.0   .     S
Ti103     C332    10.001   .     S
Ti104     H107    10.0   .     S
Ti104     H108    10.0   .     S
Ti104     C329    10.001   .     S
H105     Be1317    10.001   .     S
H105     H107    10.0   .     S
H105     H106    10.0   .     S
H106     Be1323    10.001   .     S
H106     H108    10.0   .     S
H107     Be1581    10.001   .     S
H107     H108    10.0   .     S
H108     Be1627    10.001   .     S
Ti109     Ti110    9.998   .     S
Ti109     H112    10.0   .     S
Ti109     H111    10.0   .     S
Ti109     C790    10.001   .     S
Ti110     H114    10.0   .     S
Ti110     H113    10.0   .     S
Ti110     C792    10.001   .     S
H111     Be847    10.001   .     S
H111     H113    10.0   .     S
H111     H112    10.0   .     S
H112     Be833    10.001   .     S
H112     H114    10.0   .     S
H113     Be769    10.001   .     S
H113     H114    10.0   .     S
H114     Be775    10.001   .     S
Ti115     Ti116    9.998   .     S
Ti115     H117    10.0   .     S
Ti115     H118    10.0   .     S
Ti115     C1330    10.001   .     S
Ti116     H119    10.0   .     S
Ti116     H120    10.0   .     S
Ti116     C1333    10.001   .     S
H117     Be1314    10.001   .     S
H117     H118    10.0   .     S
H117     H119    10.0   .     S
H118     Be1277    10.001   .     S
H118     H120    10.0   .     S
H119     Be1374    10.001   .     S
H119     H120    10.0   .     S
H120     Be1354    10.001   .     S
Ti121     Ti122    9.998   .     S
Ti121     H123    10.0   .     S
Ti121     H124    10.0   .     S
Ti121     C469    10.001   .     S
Ti122     H125    10.0   .     S
Ti122     H126    10.0   .     S
Ti122     C472    10.001   .     S
H123     Be1208    10.001   .     S
H123     H124    10.0   .     S
H123     H126    10.0   .     S
H124     Be1202    10.001   .     S
H124     H125    10.0   .     S
H125     Be481    10.001   .     S
H125     H126    10.0   .     S
H126     Be522    10.001   .     S
Ti127     Ti128    9.998   .     S
Ti127     H130    10.0   .     S
Ti127     H129    10.0   .     S
Ti127     C565    10.001   .     S
Ti128     H131    10.0   .     S
Ti128     H132    10.0   .     S
Ti128     C562    10.001   .     S
H129     Be729    10.001   .     S
H129     H130    10.0   .     S
H129     H132    10.0   .     S
H130     Be766    10.001   .     S
H130     H131    10.0   .     S
H131     Be678    10.001   .     S
H131     H132    10.0   .     S
H132     Be704    10.001   .     S
Ti133     Ti134    9.998   .     S
Ti133     H135    10.0   .     S
Ti133     H136    10.0   .     S
Ti133     C1422    10.001   .     S
Ti134     H138    10.0   .     S
Ti134     H137    10.0   .     S
Ti134     C1426    10.001   .     S
H135     Be1320    10.001   .     S
H135     H136    10.0   .     S
H135     H137    10.0   .     S
H136     Be1301    10.001   .     S
H136     H138    10.0   .     S
H137     Be1465    10.001   .     S
H137     H138    10.0   .     S
H138     Be1438    10.001   .     S
Ti139     Ti140    9.998   .     S
Ti139     H141    10.0   .     S
Ti139     H143    10.0   .     S
Ti139     C581    10.001   .     S
Ti140     H144    10.0   .     S
Ti140     H142    10.0   .     S
Ti140     C578    10.001   .     S
H141     Be772    10.001   .     S
H141     H143    10.0   .     S
H141     H142    10.0   .     S
H142     Be600    10.001   .     S
H142     H144    10.0   .     S
H143     Be756    10.001   .     S
H143     H144    10.0   .     S
H144     Be586    10.001   .     S
Ti145     Ti146    9.998   .     S
Ti145     H147    10.0   .     S
Ti145     H148    10.0   .     S
Ti145     C1029    10.001   .     S
Ti146     H149    10.0   .     S
Ti146     H150    10.0   .     S
Ti146     C1026    10.001   .     S
H147     Be1092    10.001   .     S
H147     H148    10.0   .     S
H147     H149    10.0   .     S
H148     Be1049    10.001   .     S
H148     H150    10.0   .     S
H149     Be940    10.001   .     S
H149     H150    10.0   .     S
H150     Be930    10.001   .     S
Ti151     Ti152    9.998   .     S
Ti151     H154    10.0   .     S
Ti151     H153    10.0   .     S
Ti151     C1256    10.001   .     S
Ti152     H155    10.0   .     S
Ti152     H156    10.0   .     S
Ti152     C1253    10.001   .     S
H153     Be1528    10.001   .     S
H153     H155    10.0   .     S
H153     H154    10.0   .     S
H154     Be1545    10.001   .     S
H154     H156    10.0   .     S
H155     Be1228    10.001   .     S
H155     H156    10.0   .     S
H156     Be1222    10.001   .     S
Ti157     Ti158    9.998   .     S
Ti157     H162    10.0   .     S
Ti157     H160    10.0   .     S
Ti157     C797    10.001   .     S
Ti158     H159    10.0   .     S
Ti158     H161    10.0   .     S
Ti158     C800    10.001   .     S
H159     Be844    10.001   .     S
H159     H161    10.0   .     S
H159     H160    10.0   .     S
H160     Be1624    10.001   .     S
H160     H162    10.0   .     S
H161     Be820    10.001   .     S
H161     H162    10.0   .     S
H162     Be1611    10.001   .     S
Ti163     Ti164    9.998   .     S
Ti163     H167    10.0   .     S
Ti163     H168    10.0   .     S
Ti163     C314    10.001   .     S
Ti164     H166    10.0   .     S
Ti164     H165    10.0   .     S
Ti164     C317    10.001   .     S
H165     Be814    10.001   .     S
H165     H166    10.0   .     S
H165     H168    10.0   .     S
H166     Be861    10.001   .     S
H166     H167    10.0   .     S
H167     Be1231    10.001   .     S
H167     H168    10.0   .     S
H168     Be1185    10.001   .     S
Ti169     Ti170    9.998   .     S
Ti169     H172    10.0   .     S
Ti169     H171    10.0   .     S
Ti169     C882    10.001   .     S
Ti170     H173    10.0   .     S
Ti170     H174    10.0   .     S
Ti170     C885    10.001   .     S
H171     Be914    10.001   .     S
H171     H172    10.0   .     S
H171     H174    10.0   .     S
H172     Be903    10.001   .     S
H172     H173    10.0   .     S
H173     Be967    10.001   .     S
H173     H174    10.0   .     S
H174     Be1003    10.001   .     S
Ti175     Ti176    9.998   .     S
Ti175     H177    10.0   .     S
Ti175     H178    10.0   .     S
Ti175     C646    10.001   .     S
Ti176     H179    10.0   .     S
Ti176     H180    10.0   .     S
Ti176     C649    10.001   .     S
H177     Be657    10.001   .     S
H177     H179    10.0   .     S
H177     H178    10.0   .     S
H178     Be668    10.001   .     S
H178     H180    10.0   .     S
H179     Be639    10.001   .     S
H179     H180    10.0   .     S
H180     Be626    10.001   .     S
Ti181     Ti182    9.998   .     S
Ti181     H185    10.0   .     S
Ti181     H186    10.0   .     S
Ti181     C781    10.001   .     S
Ti182     H183    10.0   .     S
Ti182     H184    10.0   .     S
Ti182     C788    10.001   .     S
H183     Be933    10.001   .     S
H183     H184    10.0   .     S
H183     H185    10.0   .     S
H184     Be924    10.001   .     S
H184     H186    10.0   .     S
H185     Be1601    10.001   .     S
H185     H186    10.0   .     S
H186     Be1592    10.001   .     S
Ti187     Ti188    9.998   .     S
Ti187     H191    10.0   .     S
Ti187     H192    10.0   .     S
Ti187     C1250    10.001   .     S
Ti188     H190    10.0   .     S
Ti188     H189    10.0   .     S
Ti188     C1245    10.001   .     S
H189     Be1357    10.001   .     S
H189     H191    10.0   .     S
H189     H190    10.0   .     S
H190     Be1348    10.001   .     S
H190     H192    10.0   .     S
H191     Be817    10.001   .     S
H191     H192    10.0   .     S
H192     Be823    10.001   .     S
Ti193     Ti194    9.998   .     S
Ti193     H197    10.0   .     S
Ti193     H196    10.0   .     S
Ti193     C390    10.001   .     S
Ti194     H195    10.0   .     S
Ti194     H198    10.0   .     S
Ti194     C386    10.001   .     S
H195     Be1149    10.001   .     S
H195     H198    10.0   .     S
H195     H196    10.0   .     S
H196     Be491    10.001   .     S
H196     H197    10.0   .     S
H197     Be498    10.001   .     S
H197     H198    10.0   .     S
H198     Be1140    10.001   .     S
Ti199     Ti200    9.998   .     S
Ti199     H203    10.0   .     S
Ti199     H204    10.0   .     S
Ti199     C308    10.001   .     S
Ti200     H202    10.0   .     S
Ti200     H201    10.0   .     S
Ti200     C305    10.001   .     S
H201     Be589    10.001   .     S
H201     H203    10.0   .     S
H201     H202    10.0   .     S
H202     Be610    10.001   .     S
H202     H204    10.0   .     S
H203     Be1617    10.001   .     S
H203     H204    10.0   .     S
H204     Be1608    10.001   .     S
Ti205     Ti206    9.998   .     S
Ti205     H210    10.0   .     S
Ti205     H208    10.0   .     S
Ti205     C362    10.001   .     S
Ti206     H209    10.0   .     S
Ti206     H207    10.0   .     S
Ti206     C366    10.001   .     S
H207     Be512    10.001   .     S
H207     H209    10.0   .     S
H207     H208    10.0   .     S
H208     Be1501    10.001   .     S
H208     H210    10.0   .     S
H209     Be528    10.001   .     S
H209     H210    10.0   .     S
H210     Be1548    10.001   .     S
Ti211     Ti212    9.998   .     S
Ti211     H216    10.0   .     S
Ti211     H215    10.0   .     S
Ti211     C339    10.001   .     S
Ti212     H214    10.0   .     S
Ti212     H213    10.0   .     S
Ti212     C344    10.001   .     S
H213     Be636    10.001   .     S
H213     H214    10.0   .     S
H213     H216    10.0   .     S
H214     Be603    10.001   .     S
H214     H215    10.0   .     S
H215     Be943    10.001   .     S
H215     H216    10.0   .     S
H216     Be900    10.001   .     S
Ti217     Ti218    9.998   .     S
Ti217     H219    10.0   .     S
Ti217     H220    10.0   .     S
Ti217     C575    10.001   .     S
Ti218     H222    10.0   .     S
Ti218     H221    10.0   .     S
Ti218     C570    10.001   .     S
H219     Be688    10.001   .     S
H219     H220    10.0   .     S
H219     H222    10.0   .     S
H220     Be671    10.001   .     S
H220     H221    10.0   .     S
H221     Be1076    10.001   .     S
H221     H222    10.0   .     S
H222     Be1046    10.001   .     S
Ti223     Ti224    9.998   .     S
Ti223     H228    10.0   .     S
Ti223     H227    10.0   .     S
Ti223     C1101    10.001   .     S
Ti224     H225    10.0   .     S
Ti224     H226    10.0   .     S
Ti224     C1106    10.001   .     S
H225     Be1123    10.001   .     S
H225     H227    10.0   .     S
H225     H226    10.0   .     S
H226     Be1133    10.001   .     S
H226     H228    10.0   .     S
H227     Be1182    10.001   .     S
H227     H228    10.0   .     S
H228     Be1188    10.001   .     S
Ti229     Ti230    9.998   .     S
Ti229     H234    10.0   .     S
Ti229     H232    10.0   .     S
Ti229     C1401    10.001   .     S
Ti230     H231    10.0   .     S
Ti230     H233    10.0   .     S
Ti230     C1397    10.001   .     S
H231     Be1512    10.001   .     S
H231     H233    10.0   .     S
H231     H232    10.0   .     S
H232     Be1163    10.001   .     S
H232     H234    10.0   .     S
H233     Be1522    10.001   .     S
H233     H234    10.0   .     S
H234     Be1110    10.001   .     S
Ti235     Ti236    9.998   .     S
Ti235     H237    10.0   .     S
Ti235     H238    10.0   .     S
Ti235     C370    10.001   .     S
Ti236     H239    10.0   .     S
Ti236     H240    10.0   .     S
Ti236     C374    10.001   .     S
H237     Be1211    10.001   .     S
H237     H239    10.0   .     S
H237     H238    10.0   .     S
H238     Be1225    10.001   .     S
H238     H240    10.0   .     S
H239     Be460    10.001   .     S
H239     H240    10.0   .     S
H240     Be440    10.001   .     S
Ti241     Ti242    9.998   .     S
Ti241     H243    10.0   .     S
Ti241     H246    10.0   .     S
Ti241     C546    10.001   .     S
Ti242     H245    10.0   .     S
Ti242     H244    10.0   .     S
Ti242     C550    10.001   .     S
H243     Be525    10.001   .     S
H243     H246    10.0   .     S
H243     H244    10.0   .     S
H244     Be623    10.001   .     S
H244     H245    10.0   .     S
H245     Be613    10.001   .     S
H245     H246    10.0   .     S
H246     Be531    10.001   .     S
Ti247     Ti248    9.998   .     S
Ti247     H249    10.0   .     S
Ti247     H252    10.0   .     S
Ti247     C557    10.001   .     S
Ti248     H251    10.0   .     S
Ti248     H250    10.0   .     S
Ti248     C555    10.001   .     S
H249     Be501    10.001   .     S
H249     H250    10.0   .     S
H249     H252    10.0   .     S
H250     Be701    10.001   .     S
H250     H251    10.0   .     S
H251     Be691    10.001   .     S
H251     H252    10.0   .     S
H252     Be478    10.001   .     S
Ti253     Ti254    9.998   .     S
Ti253     H258    10.0   .     S
Ti253     H255    10.0   .     S
Ti253     C1010    10.001   .     S
Ti254     H257    10.0   .     S
Ti254     H256    10.0   .     S
Ti254     C1014    10.001   .     S
H255     Be1130    10.001   .     S
H255     H258    10.0   .     S
H255     H256    10.0   .     S
H256     Be993    10.001   .     S
H256     H257    10.0   .     S
H257     Be987    10.001   .     S
H257     H258    10.0   .     S
H258     Be1143    10.001   .     S
Ti259     Ti260    9.998   .     S
Ti259     H264    10.0   .     S
Ti259     H263    10.0   .     S
Ti259     C348    10.001   .     S
Ti260     H262    10.0   .     S
Ti260     H261    10.0   .     S
Ti260     C345    10.001   .     S
H261     Be1441    10.001   .     S
H261     H262    10.0   .     S
H261     H264    10.0   .     S
H262     Be1472    10.001   .     S
H262     H263    10.0   .     S
H263     Be454    10.001   .     S
H263     H264    10.0   .     S
H264     Be463    10.001   .     S
Ti265     Ti266    9.998   .     S
Ti265     H268    10.0   .     S
Ti265     H269    10.0   .     S
Ti265     C1174    10.001   .     S
Ti266     H267    10.0   .     S
Ti266     H270    10.0   .     S
Ti266     C1170    10.001   .     S
H267     Be1551    10.001   .     S
H267     H268    10.0   .     S
H267     H270    10.0   .     S
H268     Be1351    10.001   .     S
H268     H269    10.0   .     S
H269     Be1341    10.001   .     S
H269     H270    10.0   .     S
H270     Be1542    10.001   .     S
Ti271     Ti272    9.998   .     S
Ti271     H274    10.0   .     S
Ti271     H273    10.0   .     S
Ti271     C1263    10.001   .     S
Ti272     H275    10.0   .     S
Ti272     H276    10.0   .     S
Ti272     C1265    10.001   .     S
H273     Be1307    10.001   .     S
H273     H274    10.0   .     S
H273     H275    10.0   .     S
H274     Be1283    10.001   .     S
H274     H276    10.0   .     S
H275     Be1515    10.001   .     S
H275     H276    10.0   .     S
H276     Be1498    10.001   .     S
Ti277     Ti278    9.998   .     S
Ti277     H280    10.0   .     S
Ti277     H279    10.0   .     S
Ti277     C1038    10.001   .     S
Ti278     H282    10.0   .     S
Ti278     H281    10.0   .     S
Ti278     C1034    10.001   .     S
H279     Be1079    10.001   .     S
H279     H282    10.0   .     S
H279     H280    10.0   .     S
H280     Be1069    10.001   .     S
H280     H281    10.0   .     S
H281     Be1146    10.001   .     S
H281     H282    10.0   .     S
H282     Be1160    10.001   .     S
Ti283     Ti284    9.998   .     S
Ti283     H286    10.0   .     S
Ti283     H285    10.0   .     S
Ti283     C718    10.001   .     S
Ti284     H287    10.0   .     S
Ti284     H288    10.0   .     S
Ti284     C714    10.001   .     S
H285     Be735    10.001   .     S
H285     H286    10.0   .     S
H285     H288    10.0   .     S
H286     Be753    10.001   .     S
H286     H287    10.0   .     S
H287     Be515    10.001   .     S
H287     H288    10.0   .     S
H288     Be488    10.001   .     S
S289     C290    9.999   .     S
S289     B291    10.0   .     S
S289     V1288    10.0   .     S
S289     V1286    10.0   .     S
C290     Er1287    10.0   .     S
C290     Er1285    10.0   .     S
B291     He295    10.0   .     S
B291     B1247    10.0   .     S
B291     B363    10.0   .     S
S292     C293    9.999   .     S
S292     B294    10.0   .     S
S292     V922    10.0   .     S
S292     V920    10.0   .     S
C293     Er919    10.0   .     S
C293     Er921    10.0   .     S
B294     He296    10.0   .     S
B294     B1108    10.0   .     S
B294     B379    10.0   .     S
He295     He296    9.998   .     S
He295     He1249    10.0   .     S
He295     He365    10.0   .     S
He296     He381    10.0   .     S
He296     He1104    10.0   .     S
S297     C298    9.999   .     S
S297     B299    10.0   .     S
S297     V1396    10.0   .     S
S297     V1394    10.0   .     S
C298     Er1393    10.0   .     S
C298     Er1395    10.0   .     S
B299     He303    10.0   .     S
B299     B1258    10.0   .     S
B299     B1415    10.0   .     S
S300     C301    9.999   .     S
S300     B302    10.0   .     S
S300     V740    10.0   .     S
S300     V738    10.0   .     S
C301     Er739    10.0   .     S
C301     Er737    10.0   .     S
B302     He304    10.0   .     S
B302     B401    10.0   .     S
B302     B392    10.0   .     S
He303     He304    9.998   .     S
He303     He1419    10.0   .     S
He303     He1259    10.0   .     S
He304     He407    10.0   .     S
He304     He388    10.0   .     S
C305     S306    9.999   .     S
C305     Er591    10.0   .     S
C305     Er593    10.0   .     S
S306     B307    10.0   .     S
S306     V594    10.0   .     S
S306     V592    10.0   .     S
B307     He311    10.0   .     S
B307     B368    10.0   .     S
B307     B384    10.0   .     S
C308     S309    9.999   .     S
C308     Er1621    10.0   .     S
C308     Er1619    10.0   .     S
S309     B310    10.0   .     S
S309     V1622    10.0   .     S
S309     V1620    10.0   .     S
B310     He312    10.0   .     S
B310     B1103    10.0   .     S
B310     B1252    10.0   .     S
He311     He312    9.998   .     S
He311     He364    10.0   .     S
He311     He380    10.0   .     S
He312     He1105    10.0   .     S
He312     He1248    10.0   .     S
B313     S315    10.0   .     S
B313     He319    10.0   .     S
B313     B1408    10.0   .     S
B313     B875    10.0   .     S
C314     S315    9.999   .     S
C314     Er1179    10.0   .     S
C314     Er1177    10.0   .     S
S315     V1180    10.0   .     S
S315     V1178    10.0   .     S
B316     S318    10.0   .     S
B316     He320    10.0   .     S
B316     B1022    10.0   .     S
B316     B1334    10.0   .     S
C317     S318    9.999   .     S
C317     Er853    10.0   .     S
C317     Er855    10.0   .     S
S318     V856    10.0   .     S
S318     V854    10.0   .     S
He319     He320    9.998   .     S
He319     He1412    10.0   .     S
He319     He879    10.0   .     S
He320     He1024    10.0   .     S
He320     He1336    10.0   .     S
B321     S322    10.0   1_545     S
B321     He325    10.0   .     S
B321     B794    10.0   .     S
B321     B342    10.0   .     S
S322     B321    10.0   1_565     S
S322     C323    9.999   .     S
S322     V662    10.0   .     S
S322     V660    10.0   .     S
C323     Er659    10.0   .     S
C323     Er661    10.0   .     S
He324     He325    9.998   .     S
He324     B326    10.0   .     S
He324     He336    10.0   .     S
He324     He1240    10.0   .     S
He325     He795    10.0   .     S
He325     He340    10.0   .     S
B326     S328    10.0   1_545     S
B326     B334    10.0   .     S
B326     B1244    10.0   .     S
C327     S328    9.999   .     S
C327     Er1469    10.0   .     S
C327     Er1467    10.0   .     S
S328     B326    10.0   1_565     S
S328     V1468    10.0   .     S
S328     V1470    10.0   .     S
C329     S330    9.999   .     S
C329     Er1575    10.0   .     S
C329     Er1573    10.0   .     S
S330     B331    10.0   .     S
S330     V1574    10.0   .     S
S330     V1576    10.0   .     S
B331     He335    10.0   .     S
B331     B789    10.0   .     S
B331     B400    10.0   .     S
C332     S333    9.999   .     S
C332     Er1327    10.0   .     S
C332     Er1325    10.0   .     S
S333     B334    10.0   .     S
S333     V1328    10.0   .     S
S333     V1326    10.0   .     S
B334     He336    10.0   .     S
B334     B1244    10.0   .     S
He335     He336    9.998   .     S
He335     He396    10.0   .     S
He335     He796    10.0   .     S
He336     He1240    10.0   .     S
B337     S338    10.0   1_455     S
B337     He341    10.0   .     S
B337     B1237    10.0   .     S
B337     B395    10.0   .     S
S338     B337    10.0   1_655     S
S338     C339    9.999   .     S
S338     V906    10.0   .     S
S338     V908    10.0   .     S
C339     Er905    10.0   .     S
C339     Er907    10.0   .     S
He340     He341    9.998   .     S
He340     B342    10.0   .     S
He340     He795    10.0   .     S
He341     He397    10.0   .     S
He341     He1241    10.0   .     S
B342     S343    10.0   1_455     S
B342     B794    10.0   .     S
S343     B342    10.0   1_655     S
S343     C344    9.999   .     S
S343     V608    10.0   .     S
S343     V606    10.0   .     S
C344     Er607    10.0   .     S
C344     Er605    10.0   .     S
C345     S346    9.999   .     S
C345     Er1445    10.0   .     S
C345     Er1443    10.0   .     S
S346     B347    10.0   .     S
S346     V1446    10.0   .     S
S346     V1444    10.0   .     S
B347     He351    10.0   .     S
B347     B1399    10.0   .     S
B347     B539    10.0   .     S
C348     S349    9.999   .     S
C348     Er467    10.0   .     S
C348     Er465    10.0   .     S
S349     B350    10.0   .     S
S349     V468    10.0   .     S
S349     V466    10.0   .     S
B350     He352    10.0   .     S
B350     B471    10.0   .     S
B350     B783    10.0   .     S
He351     He352    9.998   .     S
He351     He1404    10.0   .     S
He351     He540    10.0   .     S
He352     He475    10.0   .     S
He352     He785    10.0   .     S
C353     S354    9.999   .     S
C353     Er429    10.0   .     S
C353     Er431    10.0   .     S
S354     B355    10.0   1_455     S
S354     V432    10.0   .     S
S354     V430    10.0   .     S
B355     S354    10.0   1_655     S
B355     He357    10.0   .     S
B355     B1030    10.0   .     S
B355     B553    10.0   .     S
He356     He357    9.998   .     S
He356     B360    10.0   .     S
He356     He583    10.0   .     S
He356     He1016    10.0   .     S
He357     He1031    10.0   .     S
He357     He559    10.0   .     S
S358     C359    9.999   .     S
S358     B360    10.0   1_455     S
S358     V836    10.0   .     S
S358     V838    10.0   .     S
C359     Er835    10.0   .     S
C359     Er837    10.0   .     S
B360     S358    10.0   1_655     S
B360     B582    10.0   .     S
B360     B1012    10.0   .     S
S361     C362    9.999   .     S
S361     B363    10.0   1_565     S
S361     V1506    10.0   .     S
S361     V1504    10.0   .     S
C362     Er1503    10.0   .     S
C362     Er1505    10.0   .     S
B363     S361    10.0   1_545     S
B363     He365    10.0   .     S
B363     B1247    10.0   .     S
He364     He365    9.998   .     S
He364     B368    10.0   .     S
He364     He380    10.0   .     S
He365     He1249    10.0   .     S
C366     Er517    10.0   .     S
C366     S367    9.999   .     S
C366     Er519    10.0   .     S
S367     B368    10.0   1_565     S
S367     V520    10.0   .     S
S367     V518    10.0   .     S
B368     S367    10.0   1_545     S
B368     B384    10.0   .     S
B369     S371    10.0   .     S
B369     He375    10.0   .     S
B369     B1171    10.0   .     S
B369     B547    10.0   .     S
C370     S371    9.999   .     S
C370     Er1217    10.0   .     S
C370     Er1219    10.0   .     S
S371     V1218    10.0   .     S
S371     V1220    10.0   .     S
B372     S373    10.0   .     S
B372     He376    10.0   .     S
B372     B563    10.0   .     S
B372     B1424    10.0   .     S
S373     C374    9.999   .     S
S373     V450    10.0   .     S
S373     V452    10.0   .     S
C374     Er451    10.0   .     S
C374     Er449    10.0   .     S
He375     He376    9.998   .     S
He375     He1175    10.0   .     S
He375     He551    10.0   .     S
He376     He567    10.0   .     S
He376     He1428    10.0   .     S
S377     C378    9.999   .     S
S377     B379    10.0   .     S
S377     V1006    10.0   .     S
S377     V1008    10.0   .     S
C378     Er1007    10.0   .     S
C378     Er1005    10.0   .     S
B379     He381    10.0   .     S
B379     B1108    10.0   .     S
He380     He381    9.998   .     S
He380     B384    10.0   .     S
He381     He1104    10.0   .     S
S382     C383    9.999   .     S
S382     B384    10.0   .     S
S382     V764    10.0   .     S
S382     V762    10.0   .     S
C383     Er761    10.0   .     S
C383     Er763    10.0   .     S
S385     C386    9.999   .     S
S385     B387    10.0   1_655     S
S385     V1154    10.0   .     S
S385     V1152    10.0   .     S
C386     Er1151    10.0   .     S
C386     Er1153    10.0   .     S
B387     S385    10.0   1_455     S
B387     He389    10.0   .     S
B387     B810    10.0   .     S
B387     B1418    10.0   .     S
He388     He389    9.998   .     S
He388     B392    10.0   .     S
He388     He407    10.0   .     S
He389     He808    10.0   .     S
He389     He1420    10.0   .     S
C390     Er493    10.0   .     S
C390     S391    9.999   .     S
C390     Er495    10.0   .     S
S391     B392    10.0   1_655     S
S391     V496    10.0   .     S
S391     V494    10.0   .     S
B392     S391    10.0   1_455     S
B392     B401    10.0   .     S
C393     Er1097    10.0   .     S
C393     Er1099    10.0   .     S
C393     S394    9.999   .     S
S394     B395    10.0   .     S
S394     V1098    10.0   .     S
S394     V1100    10.0   .     S
B395     He397    10.0   .     S
B395     B1237    10.0   .     S
He396     He397    9.998   .     S
He396     B400    10.0   .     S
He396     He796    10.0   .     S
He397     He1241    10.0   .     S
C398     S399    9.999   .     S
C398     Er425    10.0   .     S
C398     Er427    10.0   .     S
S399     B400    10.0   .     S
S399     V428    10.0   .     S
S399     V426    10.0   .     S
B400     B789    10.0   .     S
B401     S402    10.0   .     S
B401     He407    10.0   .     S
S402     C403    9.999   .     S
S402     V710    10.0   .     S
S402     V712    10.0   .     S
C403     Er709    10.0   .     S
C403     Er711    10.0   .     S
B404     S405    10.0   .     S
B404     He408    10.0   .     S
B404     B1255    10.0   .     S
B404     B805    10.0   .     S
S405     C406    9.999   .     S
S405     V448    10.0   .     S
S405     V446    10.0   .     S
C406     Er447    10.0   .     S
C406     Er445    10.0   .     S
He407     He408    9.998   .     S
He408     He1260    10.0   .     S
He408     He809    10.0   .     S
Er409     Ce458    10.0   .     S
Er409     V410    9.999   .     S
Er409     C1557    10.0   .     S
Er409     Er411    10.0   .     S
V410     S1558    10.0   .     S
V410     V412    10.0   .     S
V410     V1480    10.0   1_554     S
Er411     Ce415    10.0   .     S
Er411     V412    9.999   .     S
Er411     C1557    10.0   .     S
V412     S1558    10.0   .     S
V412     V1058    10.0   1_554     S
Li413     Ce415    10.001   .     S
Li413     Be414    9.999   .     S
Li413     Li456    10.0   .     S
Li413     Li416    10.001   .     S
Be414     Ce418    9.999   .     S
Be414     Ce415    10.0   .     S
Ce415     Be417    9.999   .     S
Li416     Ce418    10.001   .     S
Li416     Be417    9.999   .     S
Li416     Li422    10.0   .     S
Be417     Ce418    10.0   .     S
Ce418     Er427    10.0   .     S
Li419     Ce421    10.001   .     S
Li419     Be420    9.999   .     S
Li419     Li436    10.0   .     S
Li419     Li422    10.001   .     S
Be420     Ce424    9.999   .     S
Be420     Ce421    10.0   .     S
Ce421     Be423    9.999   .     S
Ce421     Er431    10.0   .     S
Li422     Ce424    10.001   .     S
Li422     Be423    9.999   .     S
Be423     Ce424    10.0   .     S
Ce424     Er425    10.0   .     S
Er425     Er427    10.0   .     S
Er425     V426    9.999   .     S
V426     V428    10.0   .     S
V426     V852    10.0   .     S
Er427     V428    9.999   .     S
V428     V1574    10.0   .     S
Er429     Er431    10.0   .     S
Er429     Ce438    10.0   .     S
Er429     V430    9.999   .     S
V430     V696    10.0   1_455     S
V430     V432    10.0   .     S
Er431     V432    9.999   .     S
V432     V1044    10.0   1_455     S
Li433     Ce435    10.001   .     S
Li433     Be434    9.999   .     S
Li433     Li442    10.0   .     S
Li433     Li436    10.001   .     S
Be434     Ce438    9.999   .     S
Be434     Ce435    10.0   .     S
Ce435     Be437    9.999   .     S
Ce435     Er447    10.0   .     S
Li436     Ce438    10.001   .     S
Li436     Be437    9.999   .     S
Be437     Ce438    10.0   .     S
Li439     Ce441    10.001   .     S
Li439     Be440    9.999   .     S
Li439     Li459    10.0   .     S
Li439     Li442    10.001   .     S
Be440     Ce444    9.999   .     S
Be440     Ce441    10.0   .     S
Ce441     Be443    9.999   .     S
Ce441     Er449    10.0   .     S
Li442     Ce444    10.001   .     S
Li442     Be443    9.999   .     S
Be443     Ce444    10.0   .     S
Ce444     Er445    10.0   .     S
Er445     Er447    10.0   .     S
Er445     V446    9.999   .     S
V446     V1234    10.0   .     S
V446     V448    10.0   .     S
Er447     V448    9.999   .     S
V448     V870    10.0   .     S
Er449     Er451    10.0   .     S
Er449     V450    9.999   .     S
V450     V684    10.0   .     S
V450     V452    10.0   .     S
Er451     Ce461    10.0   .     S
Er451     V452    9.999   .     S
V452     V1448    10.0   .     S
Li453     Ce455    10.001   .     S
Li453     Be454    9.999   .     S
Li453     Li462    10.0   .     S
Li453     Li456    10.001   .     S
Be454     Ce458    9.999   .     S
Be454     Ce455    10.0   .     S
Ce455     Be457    9.999   .     S
Ce455     Er467    10.0   .     S
Li456     Ce458    10.001   .     S
Li456     Be457    9.999   .     S
Be457     Ce458    10.0   .     S
Li459     Ce461    10.001   .     S
Li459     Be460    9.999   .     S
Li459     Li462    10.001   .     S
Be460     Ce464    9.999   .     S
Be460     Ce461    10.0   .     S
Ce461     Be463    9.999   .     S
Li462     Ce464    10.001   .     S
Li462     Be463    9.999   .     S
Be463     Ce464    10.0   .     S
Ce464     Er465    10.0   .     S
Er465     Er467    10.0   .     S
Er465     V466    9.999   .     S
V466     V468    10.0   .     S
V466     V1216    10.0   .     S
Er467     V468    9.999   .     S
V468     V1606    10.0   .     S
C469     S470    9.999   .     S
C469     Er1215    10.0   .     S
C469     Er1213    10.0   .     S
S470     B471    10.0   .     S
S470     V1216    10.0   .     S
S470     V1214    10.0   .     S
B471     He475    10.0   .     S
B471     B783    10.0   .     S
C472     S473    9.999   .     S
C472     Er483    10.0   .     S
C472     Er485    10.0   .     S
S473     B474    10.0   .     S
S473     V486    10.0   .     S
S473     V484    10.0   .     S
B474     He476    10.0   .     S
B474     B576    10.0   .     S
B474     B544    10.0   .     S
He475     He476    9.998   .     S
He475     He785    10.0   .     S
He476     He572    10.0   .     S
He476     He541    10.0   .     S
Li477     Ce479    10.001   .     S
Li477     Be478    9.999   .     S
Li477     Li500    10.0   .     S
Li477     Li480    10.001   .     S
Be478     Ce482    9.999   .     S
Be478     Ce479    10.0   .     S
Ce479     Be481    9.999   .     S
Ce479     Er505    10.0   .     S
Li480     Ce482    10.001   .     S
Li480     Be481    9.999   .     S
Li480     Li521    10.0   .     S
Be481     Ce482    10.0   .     S
Ce482     Er485    10.0   .     S
Er483     Er485    10.0   .     S
Er483     Ce523    10.0   .     S
Er483     V484    9.999   .     S
V484     V632    10.0   .     S
V484     V486    10.0   .     S
Er485     V486    9.999   .     S
V486     V674    10.0   .     S
Li487     Ce489    10.001   .     S
Li487     Be488    9.999   .     S
Li487     Li514    10.0   .     S
Li487     Li490    10.001   .     S
Be488     Ce492    9.999   .     S
Be488     Ce489    10.0   .     S
Ce489     Be491    9.999   .     S
Ce489     Er509    10.0   .     S
Li490     Ce492    10.001   .     S
Li490     Be491    9.999   .     S
Li490     Li497    10.0   .     S
Be491     Ce492    10.0   .     S
Ce492     Er495    10.0   .     S
Er493     Er495    10.0   .     S
Er493     Ce499    10.0   .     S
Er493     V494    9.999   .     S
V494     V712    10.0   1_655     S
V494     V496    10.0   .     S
Er495     V496    9.999   .     S
V496     V738    10.0   1_655     S
Li497     Ce499    10.001   .     S
Li497     Be498    9.999   .     S
Li497     Li500    10.001   .     S
Be498     Ce502    9.999   .     S
Be498     Ce499    10.0   .     S
Ce499     Be501    9.999   .     S
Li500     Ce502    10.001   .     S
Li500     Be501    9.999   .     S
Be501     Ce502    10.0   .     S
Ce502     Er503    10.0   .     S
Er503     V504    9.999   .     S
Er503     C557    10.0   .     S
Er503     Er505    10.0   .     S
V504     S556    10.0   .     S
V504     V506    10.0   .     S
V504     V1138    10.0   .     S
Er505     V506    9.999   .     S
Er505     C557    10.0   .     S
V506     S556    10.0   .     S
V506     V1200    10.0   .     S
Er507     Ce516    10.0   .     S
Er507     V508    9.999   .     S
Er507     C714    10.0   .     S
Er507     Er509    10.0   .     S
V508     S713    10.0   .     S
V508     V510    10.0   .     S
V508     V1510    10.0   .     S
Er509     V510    9.999   .     S
Er509     C714    10.0   .     S
V510     S713    10.0   .     S
V510     V1156    10.0   .     S
Li511     Ce513    10.001   .     S
Li511     Be512    9.999   .     S
Li511     Li527    10.0   .     S
Li511     Li514    10.001   .     S
Be512     Ce516    9.999   .     S
Be512     Ce513    10.0   .     S
Ce513     Be515    9.999   .     S
Ce513     Er517    10.0   .     S
Li514     Ce516    10.001   .     S
Li514     Be515    9.999   .     S
Be515     Ce516    10.0   .     S
Er517     Er519    10.0   .     S
Er517     V518    9.999   .     S
V518     V764    10.0   1_565     S
V518     V520    10.0   .     S
Er519     Ce529    10.0   .     S
Er519     V520    9.999   .     S
V520     V592    10.0   1_565     S
Li521     Ce523    10.001   .     S
Li521     Be522    9.999   .     S
Li521     Li524    10.001   .     S
Be522     Ce526    9.999   .     S
Be522     Ce523    10.0   .     S
Ce523     Be525    9.999   .     S
Li524     Ce526    10.001   .     S
Li524     Be525    9.999   .     S
Li524     Li530    10.0   .     S
Be525     Ce526    10.0   .     S
Ce526     Er533    10.0   .     S
Li527     Ce529    10.001   .     S
Li527     Be528    9.999   .     S
Li527     Li530    10.001   .     S
Be528     Ce532    9.999   .     S
Be528     Ce529    10.0   .     S
Ce529     Be531    9.999   .     S
Li530     Ce532    10.001   .     S
Li530     Be531    9.999   .     S
Be531     Ce532    10.0   .     S
Ce532     Er535    10.0   .     S
Er533     V534    9.999   .     S
Er533     C546    10.0   .     S
Er533     Er535    10.0   .     S
V534     S545    10.0   .     S
V534     V536    10.0   .     S
V534     V1218    10.0   .     S
Er535     V536    9.999   .     S
Er535     C546    10.0   .     S
V536     S545    10.0   .     S
V536     V1554    10.0   .     S
S537     C538    9.999   .     S
S537     B539    10.0   .     S
S537     V1310    10.0   .     S
S537     V1312    10.0   .     S
C538     Er1311    10.0   .     S
C538     Er1309    10.0   .     S
B539     He540    10.0   .     S
B539     B1399    10.0   .     S
He540     He541    9.998   .     S
He540     He1404    10.0   .     S
He541     B544    10.0   .     S
He541     He572    10.0   .     S
S542     C543    9.999   .     S
S542     B544    10.0   .     S
S542     V632    10.0   .     S
S542     V634    10.0   .     S
C543     Er631    10.0   .     S
C543     Er633    10.0   .     S
B544     B576    10.0   .     S
S545     C546    9.999   .     S
S545     B547    10.0   .     S
B547     He551    10.0   .     S
B547     B1171    10.0   .     S
B548     S549    10.0   .     S
B548     He552    10.0   .     S
B548     B799    10.0   .     S
B548     B1423    10.0   .     S
S549     C550    9.999   .     S
S549     V618    10.0   .     S
S549     V616    10.0   .     S
C550     Er617    10.0   .     S
C550     Er615    10.0   .     S
He551     He552    9.998   .     S
He551     He1175    10.0   .     S
He552     He803    10.0   .     S
He552     He1427    10.0   .     S
B553     S554    10.0   .     S
B553     He559    10.0   .     S
B553     B1030    10.0   .     S
S554     C555    9.999   .     S
S554     V696    10.0   .     S
S554     V694    10.0   .     S
C555     Er693    10.0   .     S
C555     Er695    10.0   .     S
S556     C557    9.999   .     S
S556     B558    10.0   .     S
B558     He560    10.0   .     S
B558     B1568    10.0   .     S
B558     B1009    10.0   .     S
He559     He560    9.998   .     S
He559     He1031    10.0   .     S
He560     He1571    10.0   .     S
He560     He1015    10.0   .     S
S561     C562    9.999   .     S
S561     B563    10.0   .     S
S561     V686    10.0   .     S
S561     V684    10.0   .     S
C562     Er685    10.0   .     S
C562     Er683    10.0   .     S
B563     He567    10.0   .     S
B563     B1424    10.0   .     S
S564     C565    9.999   .     S
S564     B566    10.0   .     S
S564     V724    10.0   .     S
S564     V722    10.0   .     S
C565     Er721    10.0   .     S
C565     Er723    10.0   .     S
B566     He568    10.0   .     S
B566     B802    10.0   .     S
B566     B1172    10.0   .     S
He567     He568    9.998   .     S
He567     He1428    10.0   .     S
He568     He804    10.0   .     S
He568     He1176    10.0   .     S
S569     C570    9.999   .     S
S569     B571    10.0   .     S
S569     V1052    10.0   .     S
S569     V1054    10.0   .     S
C570     Er1053    10.0   .     S
C570     Er1051    10.0   .     S
B571     He573    10.0   .     S
B571     B786    10.0   .     S
B571     B1402    10.0   .     S
He572     He573    9.998   .     S
He572     B576    10.0   .     S
He573     He784    10.0   .     S
He573     He1403    10.0   .     S
S574     C575    9.999   .     S
S574     B576    10.0   .     S
S574     V674    10.0   .     S
S574     V676    10.0   .     S
C575     Er673    10.0   .     S
C575     Er675    10.0   .     S
S577     C578    9.999   .     S
S577     B579    10.0   .     S
S577     V598    10.0   .     S
S577     V596    10.0   .     S
C578     Er595    10.0   .     S
C578     Er597    10.0   .     S
B579     He584    10.0   .     S
B579     B1565    10.0   .     S
B579     B1027    10.0   .     S
S580     C581    9.999   .     S
S580     B582    10.0   .     S
S580     V748    10.0   .     S
S580     V746    10.0   .     S
C581     Er745    10.0   .     S
C581     Er747    10.0   .     S
B582     He583    10.0   .     S
B582     B1012    10.0   .     S
He583     He584    9.998   .     S
He583     He1016    10.0   .     S
He584     He1572    10.0   .     S
He584     He1032    10.0   .     S
Li585     Ce587    10.001   .     S
Li585     Be586    9.999   .     S
Li585     Li599    10.0   .     S
Li585     Li588    10.001   .     S
Be586     Ce590    9.999   .     S
Be586     Ce587    10.0   .     S
Ce587     Be589    9.999   .     S
Ce587     Er595    10.0   .     S
Li588     Ce590    10.001   .     S
Li588     Be589    9.999   .     S
Li588     Li609    10.0   .     S
Be589     Ce590    10.0   .     S
Ce590     Er593    10.0   .     S
Er591     Er593    10.0   .     S
Er591     Ce611    10.0   .     S
Er591     V592    9.999   .     S
V592     V594    10.0   .     S
V592     V520    10.0   1_545     S
Er593     V594    9.999   .     S
V594     V762    10.0   .     S
Er595     Er597    10.0   .     S
Er595     V596    9.999   .     S
V596     V598    10.0   .     S
V596     V1590    10.0   .     S
Er597     Ce601    10.0   .     S
Er597     V598    9.999   .     S
V598     V948    10.0   .     S
Li599     Ce601    10.001   .     S
Li599     Be600    9.999   .     S
Li599     Li602    10.001   .     S
Be600     Ce604    9.999   .     S
Be600     Ce601    10.0   .     S
Ce601     Be603    9.999   .     S
Li602     Ce604    10.001   .     S
Li602     Be603    9.999   .     S
Li602     Li635    10.0   .     S
Be603     Ce604    10.0   .     S
Ce604     Er605    10.0   .     S
Er605     Er607    10.0   .     S
Er605     V606    9.999   .     S
V606     V608    10.0   .     S
V606     V780    10.0   1_655     S
Er607     Ce637    10.0   .     S
Er607     V608    9.999   .     S
V608     V662    10.0   1_645     S
Li609     Ce611    10.001   .     S
Li609     Be610    9.999   .     S
Li609     Li612    10.001   1_545     S
Be610     Ce614    9.999   1_545     S
Be610     Ce611    10.0   .     S
Ce611     Be613    9.999   1_545     S
Li612     Ce614    10.001   .     S
Li612     Be613    9.999   .     S
Li612     Li622    10.0   .     S
Li612     Li609    10.001   1_565     S
Be613     Ce611    9.999   1_565     S
Be613     Ce614    10.0   .     S
Ce614     Be610    9.999   1_565     S
Ce614     Er615    10.0   .     S
Er615     Er617    10.0   .     S
Er615     V616    9.999   .     S
V616     V1630    10.0   1_565     S
V616     V618    10.0   .     S
Er617     Ce624    10.0   .     S
Er617     V618    9.999   .     S
V618     V1294    10.0   .     S
Li619     Ce621    10.001   .     S
Li619     Be620    9.999   .     S
Li619     Li628    10.0   .     S
Li619     Li622    10.001   .     S
Be620     Ce624    9.999   .     S
Be620     Ce621    10.0   .     S
Ce621     Be623    9.999   .     S
Ce621     Er631    10.0   .     S
Li622     Ce624    10.001   .     S
Li622     Be623    9.999   .     S
Be623     Ce624    10.0   .     S
Li625     Ce627    10.001   .     S
Li625     Be626    9.999   .     S
Li625     Li638    10.0   .     S
Li625     Li628    10.001   .     S
Be626     Ce630    9.999   .     S
Be626     Ce627    10.0   .     S
Ce627     Be629    9.999   .     S
Ce627     Er641    10.0   .     S
Li628     Ce630    10.001   .     S
Li628     Be629    9.999   .     S
Be629     Ce630    10.0   .     S
Ce630     Er633    10.0   .     S
Er631     Er633    10.0   .     S
Er631     V632    9.999   .     S
V632     V634    10.0   .     S
Er633     V634    9.999   .     S
V634     V676    10.0   .     S
Li635     Ce637    10.001   .     S
Li635     Be636    9.999   .     S
Li635     Li638    10.001   1_545     S
Be636     Ce640    9.999   1_545     S
Be636     Ce637    10.0   .     S
Ce637     Be639    9.999   1_545     S
Li638     Ce640    10.001   .     S
Li638     Be639    9.999   .     S
Li638     Li635    10.001   1_565     S
Be639     Ce637    9.999   1_565     S
Be639     Ce640    10.0   .     S
Ce640     Be636    9.999   1_565     S
Ce640     Er643    10.0   .     S
Er641     V642    9.999   .     S
Er641     C649    10.0   .     S
Er641     Er643    10.0   .     S
V642     S648    10.0   .     S
V642     V644    10.0   .     S
V642     V1292    10.0   1_554     S
Er643     V644    9.999   .     S
Er643     C649    10.0   .     S
V644     S648    10.0   .     S
V644     V910    10.0   1_564     S
S645     C646    9.999   .     S
S645     B647    10.0   1_554     S
S645     V664    10.0   .     S
S645     V666    10.0   .     S
C646     Er665    10.0   .     S
C646     Er663    10.0   .     S
B647     S645    10.0   1_556     S
B647     He652    10.0   .     S
B647     B1431    10.0   .     S
B647     B1036    10.0   .     S
S648     C649    9.999   .     S
S648     B650    10.0   1_554     S
B650     S648    10.0   1_556     S
B650     He651    10.0   .     S
B650     B883    10.0   .     S
B650     B1261    10.0   .     S
He651     He652    9.998   .     S
He651     He887    10.0   .     S
He651     He1267    10.0   .     S
He652     He1436    10.0   .     S
He652     He1039    10.0   .     S
Li653     Ce655    10.001   .     S
Li653     Be654    9.999   .     S
Li653     Li680    10.0   .     S
Li653     Li656    10.001   1_455     S
Be654     Ce658    9.999   1_455     S
Be654     Ce655    10.0   .     S
Ce655     Be657    9.999   1_455     S
Ce655     Er661    10.0   .     S
Li656     Ce658    10.001   .     S
Li656     Be657    9.999   .     S
Li656     Li667    10.0   .     S
Li656     Li653    10.001   1_655     S
Be657     Ce655    9.999   1_655     S
Be657     Ce658    10.0   .     S
Ce658     Be654    9.999   1_655     S
Ce658     Er663    10.0   .     S
Er659     Er661    10.0   .     S
Er659     Ce682    10.0   .     S
Er659     V660    9.999   .     S
V660     V662    10.0   .     S
V660     V778    10.0   1_565     S
Er661     V662    9.999   .     S
V662     V608    10.0   1_465     S
Er663     Er665    10.0   .     S
Er663     V664    9.999   .     S
V664     V666    10.0   .     S
V664     V1454    10.0   1_654     S
Er665     Ce669    10.0   .     S
Er665     V666    9.999   .     S
V666     V1084    10.0   1_554     S
Li667     Ce669    10.001   .     S
Li667     Be668    9.999   .     S
Li667     Li670    10.001   .     S
Be668     Ce672    9.999   .     S
Be668     Ce669    10.0   .     S
Ce669     Be671    9.999   .     S
Li670     Ce672    10.001   .     S
Li670     Be671    9.999   .     S
Li670     Li687    10.0   .     S
Be671     Ce672    10.0   .     S
Ce672     Er675    10.0   .     S
Er673     Er675    10.0   .     S
Er673     Ce689    10.0   .     S
Er673     V674    9.999   .     S
V674     V676    10.0   .     S
Er675     V676    9.999   .     S
Li677     Ce679    10.001   .     S
Li677     Be678    9.999   .     S
Li677     Li703    10.0   .     S
Li677     Li680    10.001   .     S
Be678     Ce682    9.999   .     S
Be678     Ce679    10.0   .     S
Ce679     Be681    9.999   .     S
Ce679     Er685    10.0   .     S
Li680     Ce682    10.001   .     S
Li680     Be681    9.999   .     S
Be681     Ce682    10.0   .     S
Er683     Er685    10.0   .     S
Er683     Ce705    10.0   .     S
Er683     V684    9.999   .     S
V684     V686    10.0   .     S
Er685     V686    9.999   .     S
V686     V1450    10.0   .     S
Li687     Ce689    10.001   .     S
Li687     Be688    9.999   .     S
Li687     Li690    10.001   .     S
Be688     Ce692    9.999   .     S
Be688     Ce689    10.0   .     S
Ce689     Be691    9.999   .     S
Li690     Ce692    10.001   .     S
Li690     Be691    9.999   .     S
Li690     Li700    10.0   .     S
Be691     Ce692    10.0   .     S
Ce692     Er693    10.0   .     S
Er693     Er695    10.0   .     S
Er693     V694    9.999   .     S
V694     V1042    10.0   .     S
V694     V696    10.0   .     S
Er695     Ce702    10.0   .     S
Er695     V696    9.999   .     S
V696     V430    10.0   1_655     S
Li697     Ce699    10.001   .     S
Li697     Be698    9.999   .     S
Li697     Li706    10.0   .     S
Li697     Li700    10.001   1_455     S
Be698     Ce702    9.999   1_455     S
Be698     Ce699    10.0   .     S
Ce699     Be701    9.999   1_455     S
Ce699     Er711    10.0   .     S
Li700     Ce702    10.001   .     S
Li700     Be701    9.999   .     S
Li700     Li697    10.001   1_655     S
Be701     Ce699    9.999   1_655     S
Be701     Ce702    10.0   .     S
Ce702     Be698    9.999   1_655     S
Li703     Ce705    10.001   .     S
Li703     Be704    9.999   .     S
Li703     Li706    10.001   .     S
Be704     Ce708    9.999   .     S
Be704     Ce705    10.0   .     S
Ce705     Be707    9.999   .     S
Li706     Ce708    10.001   .     S
Li706     Be707    9.999   .     S
Be707     Ce708    10.0   .     S
Ce708     Er709    10.0   .     S
Er709     Er711    10.0   .     S
Er709     V710    9.999   .     S
V710     V740    10.0   .     S
V710     V712    10.0   .     S
Er711     V712    9.999   .     S
V712     V494    10.0   1_455     S
S713     C714    9.999   .     S
S713     B715    10.0   .     S
B715     He720    10.0   .     S
B715     B1266    10.0   .     S
B715     B1035    10.0   .     S
B716     S717    10.0   .     S
B716     He719    10.0   .     S
B716     B1434    10.0   .     S
B716     B886    10.0   .     S
S717     C718    9.999   .     S
S717     V744    10.0   .     S
S717     V742    10.0   .     S
C718     Er743    10.0   .     S
C718     Er741    10.0   .     S
He719     He720    9.998   .     S
He719     He1435    10.0   .     S
He719     He888    10.0   .     S
He720     He1268    10.0   .     S
He720     He1040    10.0   .     S
Er721     Er723    10.0   .     S
Er721     Ce730    10.0   .     S
Er721     V722    9.999   .     S
V722     V1346    10.0   .     S
V722     V724    10.0   .     S
Er723     Ce767    10.0   .     S
Er723     V724    9.999   .     S
V724     V840    10.0   1_565     S
Li725     Ce727    10.001   .     S
Li725     Be726    9.999   .     S
Li725     Li731    10.0   .     S
Li725     Li728    10.001   .     S
Be726     Ce730    9.999   .     S
Be726     Ce727    10.0   .     S
Ce727     Be729    9.999   .     S
Ce727     Er739    10.0   .     S
Li728     Ce730    10.001   .     S
Li728     Be729    9.999   .     S
Li728     Li765    10.0   .     S
Be729     Ce730    10.0   .     S
Li731     Ce733    10.001   .     S
Li731     Be732    9.999   .     S
Li731     Li734    10.001   1_455     S
Be732     Ce736    9.999   1_455     S
Be732     Ce733    10.0   .     S
Ce733     Be735    9.999   1_455     S
Ce733     Er737    10.0   .     S
Li734     Ce736    10.001   .     S
Li734     Be735    9.999   .     S
Li734     Li752    10.0   .     S
Li734     Li731    10.001   1_655     S
Be735     Ce733    9.999   1_655     S
Be735     Ce736    10.0   .     S
Ce736     Be732    9.999   1_655     S
Ce736     Er741    10.0   .     S
Er737     Er739    10.0   .     S
Er737     V738    9.999   .     S
V738     V740    10.0   .     S
V738     V496    10.0   1_455     S
Er739     V740    9.999   .     S
Er741     Er743    10.0   .     S
Er741     V742    9.999   .     S
V742     V1386    10.0   1_655     S
V742     V744    10.0   .     S
Er743     Ce754    10.0   .     S
Er743     V744    9.999   .     S
V744     V960    10.0   1_565     S
Er745     Er747    10.0   .     S
Er745     Ce757    10.0   .     S
Er745     V746    9.999   .     S
V746     V748    10.0   .     S
V746     V998    10.0   .     S
Er747     Ce773    10.0   .     S
Er747     V748    9.999   .     S
V748     V838    10.0   1_655     S
Li749     Ce751    10.001   .     S
Li749     Be750    9.999   .     S
Li749     Li758    10.0   .     S
Li749     Li752    10.001   1_545     S
Be750     Ce754    9.999   1_545     S
Be750     Ce751    10.0   .     S
Ce751     Be753    9.999   1_545     S
Ce751     Er763    10.0   .     S
Li752     Ce754    10.001   .     S
Li752     Be753    9.999   .     S
Li752     Li749    10.001   1_565     S
Be753     Ce751    9.999   1_565     S
Be753     Ce754    10.0   .     S
Ce754     Be750    9.999   1_565     S
Li755     Ce757    10.001   .     S
Li755     Be756    9.999   .     S
Li755     Li771    10.0   .     S
Li755     Li758    10.001   .     S
Be756     Ce760    9.999   .     S
Be756     Ce757    10.0   .     S
Ce757     Be759    9.999   .     S
Li758     Ce760    10.001   .     S
Li758     Be759    9.999   .     S
Be759     Ce760    10.0   .     S
Ce760     Er761    10.0   .     S
Er761     Er763    10.0   .     S
Er761     V762    9.999   .     S
V762     V764    10.0   .     S
Er763     V764    9.999   .     S
V764     V518    10.0   1_545     S
Li765     Ce767    10.001   .     S
Li765     Be766    9.999   .     S
Li765     Li768    10.001   1_565     S
Be766     Ce770    9.999   1_565     S
Be766     Ce767    10.0   .     S
Ce767     Be769    9.999   1_565     S
Li768     Ce770    10.001   .     S
Li768     Be769    9.999   .     S
Li768     Li774    10.0   .     S
Li768     Li765    10.001   1_545     S
Be769     Ce767    9.999   1_545     S
Be769     Ce770    10.0   .     S
Ce770     Be766    9.999   1_545     S
Ce770     Er777    10.0   .     S
Li771     Ce773    10.001   .     S
Li771     Be772    9.999   .     S
Li771     Li774    10.001   1_655     S
Be772     Ce776    9.999   1_655     S
Be772     Ce773    10.0   .     S
Ce773     Be775    9.999   1_655     S
Li774     Ce776    10.001   .     S
Li774     Be775    9.999   .     S
Li774     Li771    10.001   1_455     S
Be775     Ce773    9.999   1_455     S
Be775     Ce776    10.0   .     S
Ce776     Be772    9.999   1_455     S
Ce776     Er779    10.0   .     S
Er777     V778    9.999   .     S
Er777     Er779    10.0   .     S
Er777     C792    10.0   .     S
V778     S793    10.0   .     S
V778     V780    10.0   .     S
V778     V660    10.0   1_545     S
Er779     V780    9.999   .     S
Er779     C792    10.0   .     S
V780     S793    10.0   .     S
V780     V606    10.0   1_455     S
C781     S782    9.999   .     S
C781     Er1605    10.0   .     S
C781     Er1603    10.0   .     S
S782     B783    10.0   .     S
S782     V1604    10.0   .     S
S782     V1606    10.0   .     S
B783     He785    10.0   .     S
He784     He785    9.998   .     S
He784     B786    10.0   .     S
He784     He1403    10.0   .     S
B786     S787    10.0   .     S
B786     B1402    10.0   .     S
S787     C788    9.999   .     S
S787     V936    10.0   .     S
S787     V938    10.0   .     S
C788     Er935    10.0   .     S
C788     Er937    10.0   .     S
B789     S791    10.0   .     S
B789     He796    10.0   .     S
C790     S791    9.999   .     S
C790     Er851    10.0   .     S
C790     Er849    10.0   .     S
S791     V852    10.0   .     S
S791     V850    10.0   .     S
C792     S793    9.999   .     S
S793     B794    10.0   .     S
B794     He795    10.0   .     S
He795     He796    9.998   .     S
C797     S798    9.999   .     S
C797     Er1631    10.0   .     S
C797     Er1629    10.0   .     S
S798     B799    10.0   1_545     S
S798     V1632    10.0   .     S
S798     V1630    10.0   .     S
B799     S798    10.0   1_565     S
B799     He803    10.0   .     S
B799     B1423    10.0   .     S
C800     S801    9.999   .     S
C800     Er841    10.0   .     S
C800     Er839    10.0   .     S
S801     B802    10.0   1_545     S
S801     V842    10.0   .     S
S801     V840    10.0   .     S
B802     S801    10.0   1_565     S
B802     He804    10.0   .     S
B802     B1172    10.0   .     S
He803     He804    9.998   .     S
He803     He1427    10.0   .     S
He804     He1176    10.0   .     S
B805     S806    10.0   .     S
B805     He809    10.0   .     S
B805     B1255    10.0   .     S
S806     C807    9.999   .     S
S806     V872    10.0   .     S
S806     V870    10.0   .     S
C807     Er869    10.0   .     S
C807     Er871    10.0   .     S
He808     He809    9.998   .     S
He808     B810    10.0   .     S
He808     He1420    10.0   .     S
He809     He1260    10.0   .     S
B810     S811    10.0   .     S
B810     B1418    10.0   .     S
S811     C812    9.999   .     S
S811     V950    10.0   .     S
S811     V952    10.0   .     S
C812     Er949    10.0   .     S
C812     Er951    10.0   .     S
Li813     Ce815    10.001   .     S
Li813     Be814    9.999   .     S
Li813     Li860    10.0   .     S
Li813     Li816    10.001   .     S
Be814     Ce818    9.999   .     S
Be814     Ce815    10.0   .     S
Ce815     Be817    9.999   .     S
Ce815     Er853    10.0   .     S
Li816     Ce818    10.001   .     S
Li816     Be817    9.999   .     S
Li816     Li822    10.0   .     S
Be817     Ce818    10.0   .     S
Ce818     Er827    10.0   .     S
Li819     Ce821    10.001   .     S
Li819     Be820    9.999   .     S
Li819     Li843    10.0   .     S
Li819     Li822    10.001   .     S
Be820     Ce824    9.999   .     S
Be820     Ce821    10.0   .     S
Ce821     Be823    9.999   .     S
Ce821     Er841    10.0   .     S
Li822     Ce824    10.001   .     S
Li822     Be823    9.999   .     S
Be823     Ce824    10.0   .     S
Ce824     Er825    10.0   .     S
Er825     V826    9.999   .     S
Er825     Er827    10.0   .     S
Er825     C1250    10.0   .     S
V826     S1251    10.0   .     S
V826     V1622    10.0   .     S
V826     V828    10.0   .     S
Er827     V828    9.999   .     S
Er827     C1250    10.0   .     S
V828     S1251    10.0   .     S
V828     V1194    10.0   .     S
Li829     Ce831    10.001   .     S
Li829     Be830    9.999   .     S
Li829     Li866    10.0   .     S
Li829     Li832    10.001   .     S
Be830     Ce834    9.999   .     S
Be830     Ce831    10.0   .     S
Ce831     Be833    9.999   .     S
Ce831     Er837    10.0   .     S
Li832     Ce834    10.001   .     S
Li832     Be833    9.999   .     S
Li832     Li846    10.0   .     S
Be833     Ce834    10.0   .     S
Ce834     Er851    10.0   .     S
Er835     Er837    10.0   .     S
Er835     Ce868    10.0   .     S
Er835     V836    9.999   .     S
V836     V838    10.0   .     S
V836     V996    10.0   1_455     S
Er837     V838    9.999   .     S
V838     V748    10.0   1_455     S
Er839     Er841    10.0   .     S
Er839     Ce845    10.0   .     S
Er839     V840    9.999   .     S
V840     V724    10.0   1_545     S
V840     V842    10.0   .     S
Er841     V842    9.999   .     S
V842     V1344    10.0   1_545     S
Li843     Ce845    10.001   .     S
Li843     Be844    9.999   .     S
Li843     Li846    10.001   .     S
Be844     Ce848    9.999   .     S
Be844     Ce845    10.0   .     S
Ce845     Be847    9.999   .     S
Li846     Ce848    10.001   .     S
Li846     Be847    9.999   .     S
Be847     Ce848    10.0   .     S
Ce848     Er849    10.0   .     S
Er849     Er851    10.0   .     S
Er849     V850    9.999   .     S
V850     V1576    10.0   .     S
V850     V852    10.0   .     S
Er851     V852    9.999   .     S
Er853     Er855    10.0   .     S
Er853     V854    9.999   .     S
V854     V856    10.0   .     S
V854     V1370    10.0   .     S
Er855     Ce862    10.0   .     S
Er855     V856    9.999   .     S
V856     V982    10.0   .     S
Li857     Ce859    10.001   .     S
Li857     Be858    9.999   .     S
Li857     Li863    10.0   .     S
Li857     Li860    10.001   .     S
Be858     Ce862    9.999   .     S
Be858     Ce859    10.0   .     S
Ce859     Be861    9.999   .     S
Ce859     Er871    10.0   .     S
Li860     Ce862    10.001   .     S
Li860     Be861    9.999   .     S
Be861     Ce862    10.0   .     S
Li863     Ce865    10.001   .     S
Li863     Be864    9.999   .     S
Li863     Li866    10.001   .     S
Be864     Ce868    9.999   .     S
Be864     Ce865    10.0   .     S
Ce865     Be867    9.999   .     S
Ce865     Er869    10.0   .     S
Li866     Ce868    10.001   .     S
Li866     Be867    9.999   .     S
Be867     Ce868    10.0   .     S
Er869     Er871    10.0   .     S
Er869     V870    9.999   .     S
V870     V872    10.0   .     S
Er871     V872    9.999   .     S
V872     V1236    10.0   .     S
S873     C874    9.999   .     S
S873     B875    10.0   .     S
S873     V1118    10.0   .     S
S873     V1116    10.0   .     S
C874     Er1117    10.0   .     S
C874     Er1115    10.0   .     S
B875     He879    10.0   .     S
B875     B1408    10.0   .     S
B876     S877    10.0   .     S
B876     He880    10.0   .     S
B876     B1562    10.0   .     S
B876     B1331    10.0   .     S
S877     C878    9.999   .     S
S877     V896    10.0   .     S
S877     V898    10.0   .     S
C878     Er895    10.0   .     S
C878     Er897    10.0   .     S
He879     He880    9.998   .     S
He879     He1412    10.0   .     S
He880     He1563    10.0   .     S
He880     He1335    10.0   .     S
S881     C882    9.999   .     S
S881     B883    10.0   1_545     S
S881     V910    10.0   .     S
S881     V912    10.0   .     S
C882     Er911    10.0   .     S
C882     Er909    10.0   .     S
B883     S881    10.0   1_565     S
B883     He887    10.0   .     S
B883     B1261    10.0   .     S
S884     C885    9.999   .     S
S884     B886    10.0   1_545     S
S884     V962    10.0   .     S
S884     V960    10.0   .     S
C885     Er959    10.0   .     S
C885     Er961    10.0   .     S
B886     S884    10.0   1_565     S
B886     He888    10.0   .     S
B886     B1434    10.0   .     S
He887     He888    9.998   .     S
He887     He1267    10.0   .     S
He888     He1435    10.0   .     S
Li889     Ce891    10.001   .     S
Li889     Be890    9.999   .     S
Li889     Li916    10.0   .     S
Li889     Li892    10.001   .     S
Be890     Ce894    9.999   .     S
Be890     Ce891    10.0   .     S
Ce891     Be893    9.999   .     S
Ce891     Er919    10.0   .     S
Li892     Ce894    10.001   .     S
Li892     Be893    9.999   .     S
Li892     Li926    10.0   .     S
Be893     Ce894    10.0   .     S
Ce894     Er897    10.0   .     S
Er895     Er897    10.0   .     S
Er895     Ce928    10.0   .     S
Er895     V896    9.999   .     S
V896     V898    10.0   .     S
V896     V1584    10.0   1_556     S
Er897     V898    9.999   .     S
V898     V1270    10.0   .     S
Li899     Ce901    10.001   .     S
Li899     Be900    9.999   .     S
Li899     Li942    10.0   .     S
Li899     Li902    10.001   1_554     S
Be900     Ce904    9.999   1_554     S
Be900     Ce901    10.0   .     S
Ce901     Be903    9.999   1_554     S
Ce901     Er907    10.0   .     S
Li902     Ce904    10.001   .     S
Li902     Be903    9.999   .     S
Li902     Li913    10.0   .     S
Li902     Li899    10.001   1_556     S
Be903     Ce901    9.999   1_556     S
Be903     Ce904    10.0   .     S
Ce904     Be900    9.999   1_556     S
Ce904     Er909    10.0   .     S
Er905     Er907    10.0   .     S
Er905     Ce944    10.0   .     S
Er905     V906    9.999   .     S
V906     V908    10.0   .     S
V906     V1100    10.0   1_655     S
Er907     V908    9.999   .     S
V908     V972    10.0   1_654     S
Er909     Er911    10.0   .     S
Er909     V910    9.999   .     S
V910     V912    10.0   .     S
V910     V644    10.0   1_546     S
Er911     Ce915    10.0   .     S
Er911     V912    9.999   .     S
V912     V1290    10.0   1_545     S
Li913     Ce915    10.001   .     S
Li913     Be914    9.999   .     S
Li913     Li916    10.001   .     S
Be914     Ce918    9.999   .     S
Be914     Ce915    10.0   .     S
Ce915     Be917    9.999   .     S
Li916     Ce918    10.001   .     S
Li916     Be917    9.999   .     S
Be917     Ce918    10.0   .     S
Ce918     Er921    10.0   .     S
Er919     Er921    10.0   .     S
Er919     V920    9.999   .     S
V920     V1128    10.0   .     S
V920     V922    10.0   .     S
Er921     V922    9.999   .     S
V922     V1006    10.0   .     S
Li923     Ce925    10.001   .     S
Li923     Be924    9.999   .     S
Li923     Li932    10.0   .     S
Li923     Li926    10.001   1_554     S
Be924     Ce928    9.999   1_554     S
Be924     Ce925    10.0   .     S
Ce925     Be927    9.999   1_554     S
Ce925     Er937    10.0   .     S
Li926     Ce928    10.001   .     S
Li926     Be927    9.999   .     S
Li926     Li923    10.001   1_556     S
Be927     Ce925    9.999   1_556     S
Be927     Ce928    10.0   .     S
Ce928     Be924    9.999   1_556     S
Li929     Ce931    10.001   .     S
Li929     Be930    9.999   .     S
Li929     Li939    10.0   .     S
Li929     Li932    10.001   .     S
Be930     Ce934    9.999   .     S
Be930     Ce931    10.0   .     S
Ce931     Be933    9.999   .     S
Ce931     Er945    10.0   .     S
Li932     Ce934    10.001   .     S
Li932     Be933    9.999   .     S
Be933     Ce934    10.0   .     S
Ce934     Er935    10.0   .     S
Er935     Er937    10.0   .     S
Er935     V936    9.999   .     S
V936     V1054    10.0   .     S
V936     V938    10.0   .     S
Er937     V938    9.999   .     S
V938     V1166    10.0   1_554     S
Li939     Ce941    10.001   .     S
Li939     Be940    9.999   .     S
Li939     Li942    10.001   .     S
Be940     Ce944    9.999   .     S
Be940     Ce941    10.0   .     S
Ce941     Be943    9.999   .     S
Ce941     Er947    10.0   .     S
Li942     Ce944    10.001   .     S
Li942     Be943    9.999   .     S
Be943     Ce944    10.0   .     S
Er945     V946    9.999   .     S
Er945     C1026    10.0   .     S
Er945     Er947    10.0   .     S
V946     S1025    10.0   .     S
V946     V948    10.0   .     S
V946     V1588    10.0   .     S
Er947     V948    9.999   .     S
Er947     C1026    10.0   .     S
V948     S1025    10.0   .     S
Er949     Er951    10.0   .     S
Er949     Ce985    10.0   .     S
Er949     V950    9.999   .     S
V950     V952    10.0   .     S
V950     V1154    10.0   1_455     S
Er951     Ce958    10.0   .     S
Er951     V952    9.999   .     S
V952     V1074    10.0   .     S
Li953     Ce955    10.001   .     S
Li953     Be954    9.999   .     S
Li953     Li973    10.0   .     S
Li953     Li956    10.001   .     S
Be954     Ce958    9.999   .     S
Be954     Ce955    10.0   .     S
Ce955     Be957    9.999   .     S
Ce955     Er981    10.0   .     S
Li956     Ce958    10.001   .     S
Li956     Be957    9.999   .     S
Li956     Li983    10.0   .     S
Be957     Ce958    10.0   .     S
Er959     Er961    10.0   .     S
Er959     Ce1004    10.0   .     S
Er959     V960    9.999   .     S
V960     V962    10.0   .     S
V960     V744    10.0   1_545     S
Er961     Ce968    10.0   .     S
Er961     V962    9.999   .     S
V962     V1384    10.0   1_645     S
Li963     Ce965    10.001   .     S
Li963     Be964    9.999   .     S
Li963     Li976    10.0   .     S
Li963     Li966    10.001   1_455     S
Be964     Ce968    9.999   1_455     S
Be964     Ce965    10.0   .     S
Ce965     Be967    9.999   1_455     S
Ce965     Er971    10.0   .     S
Li966     Ce968    10.001   .     S
Li966     Be967    9.999   .     S
Li966     Li1002    10.0   .     S
Li966     Li963    10.001   1_655     S
Be967     Ce965    9.999   1_655     S
Be967     Ce968    10.0   .     S
Ce968     Be964    9.999   1_655     S
Er969     Ce978    10.0   .     S
Er969     V970    9.999   .     S
Er969     C1239    10.0   .     S
Er969     Er971    10.0   .     S
V970     S1238    10.0   .     S
V970     V972    10.0   .     S
V970     V1098    10.0   1_556     S
Er971     V972    9.999   .     S
Er971     C1239    10.0   .     S
V972     S1238    10.0   .     S
V972     V908    10.0   1_456     S
Li973     Ce975    10.001   .     S
Li973     Be974    9.999   .     S
Li973     Li976    10.001   .     S
Be974     Ce978    9.999   .     S
Be974     Ce975    10.0   .     S
Ce975     Be977    9.999   .     S
Ce975     Er979    10.0   .     S
Li976     Ce978    10.001   .     S
Li976     Be977    9.999   .     S
Be977     Ce978    10.0   .     S
Er979     V980    9.999   .     S
Er979     C1021    10.0   .     S
Er979     Er981    10.0   .     S
V980     S1020    10.0   .     S
V980     V982    10.0   .     S
V980     V1372    10.0   .     S
Er981     V982    9.999   .     S
Er981     C1021    10.0   .     S
V982     S1020    10.0   .     S
Li983     Ce985    10.001   .     S
Li983     Be984    9.999   .     S
Li983     Li986    10.001   1_455     S
Be984     Ce988    9.999   1_455     S
Be984     Ce985    10.0   .     S
Ce985     Be987    9.999   1_455     S
Li986     Ce988    10.001   .     S
Li986     Be987    9.999   .     S
Li986     Li992    10.0   .     S
Li986     Li983    10.001   1_655     S
Be987     Ce985    9.999   1_655     S
Be987     Ce988    10.0   .     S
Ce988     Be984    9.999   1_655     S
Ce988     Er995    10.0   .     S
Li989     Ce991    10.001   .     S
Li989     Be990    9.999   .     S
Li989     Li999    10.0   .     S
Li989     Li992    10.001   .     S
Be990     Ce994    9.999   .     S
Be990     Ce991    10.0   .     S
Ce991     Be993    9.999   .     S
Ce991     Er1007    10.0   .     S
Li992     Ce994    10.001   .     S
Li992     Be993    9.999   .     S
Be993     Ce994    10.0   .     S
Ce994     Er997    10.0   .     S
Er995     V996    9.999   .     S
Er995     C1014    10.0   .     S
Er995     Er997    10.0   .     S
V996     S1013    10.0   .     S
V996     V836    10.0   1_655     S
V996     V998    10.0   .     S
Er997     V998    9.999   .     S
Er997     C1014    10.0   .     S
V998     S1013    10.0   .     S
Li999     Ce1001    10.001   .     S
Li999     Be1000    9.999   .     S
Li999     Li1002    10.001   .     S
Be1000     Ce1004    9.999   .     S
Be1000     Ce1001    10.0   .     S
Ce1001     Be1003    9.999   .     S
Ce1001     Er1005    10.0   .     S
Li1002     Ce1004    10.001   .     S
Li1002     Be1003    9.999   .     S
Be1003     Ce1004    10.0   .     S
Er1005     Er1007    10.0   .     S
Er1005     V1006    9.999   .     S
V1006     V1008    10.0   .     S
Er1007     V1008    9.999   .     S
V1008     V1126    10.0   .     S
B1009     S1011    10.0   .     S
B1009     He1015    10.0   .     S
B1009     B1568    10.0   .     S
C1010     S1011    9.999   .     S
C1010     Er1135    10.0   .     S
C1010     Er1137    10.0   .     S
S1011     V1138    10.0   .     S
S1011     V1136    10.0   .     S
B1012     S1013    10.0   .     S
B1012     He1016    10.0   .     S
S1013     C1014    9.999   .     S
He1015     He1016    9.998   .     S
He1015     He1571    10.0   .     S
S1017     C1018    9.999   .     S
S1017     B1019    10.0   .     S
S1017     V1058    10.0   .     S
S1017     V1056    10.0   .     S
C1018     Er1055    10.0   .     S
C1018     Er1057    10.0   .     S
B1019     He1023    10.0   .     S
B1019     B1559    10.0   .     S
B1019     B1405    10.0   .     S
S1020     C1021    9.999   .     S
S1020     B1022    10.0   .     S
B1022     He1024    10.0   .     S
B1022     B1334    10.0   .     S
He1023     He1024    9.998   .     S
He1023     He1564    10.0   .     S
He1023     He1411    10.0   .     S
He1024     He1336    10.0   .     S
S1025     C1026    9.999   .     S
S1025     B1027    10.0   .     S
B1027     He1032    10.0   .     S
B1027     B1565    10.0   .     S
S1028     C1029    9.999   .     S
S1028     B1030    10.0   .     S
S1028     V1042    10.0   .     S
S1028     V1044    10.0   .     S
C1029     Er1041    10.0   .     S
C1029     Er1043    10.0   .     S
B1030     He1031    10.0   .     S
He1031     He1032    9.998   .     S
He1032     He1572    10.0   .     S
S1033     C1034    9.999   .     S
S1033     B1035    10.0   .     S
S1033     V1158    10.0   .     S
S1033     V1156    10.0   .     S
C1034     Er1157    10.0   .     S
C1034     Er1155    10.0   .     S
B1035     He1040    10.0   .     S
B1035     B1266    10.0   .     S
B1036     S1037    10.0   .     S
B1036     He1039    10.0   .     S
B1036     B1431    10.0   .     S
S1037     C1038    9.999   .     S
S1037     V1082    10.0   .     S
S1037     V1084    10.0   .     S
C1038     Er1081    10.0   .     S
C1038     Er1083    10.0   .     S
He1039     He1040    9.998   .     S
He1039     He1436    10.0   .     S
He1040     He1268    10.0   .     S
Er1041     Er1043    10.0   .     S
Er1041     Ce1050    10.0   .     S
Er1041     V1042    9.999   .     S
V1042     V1044    10.0   .     S
Er1043     Ce1093    10.0   .     S
Er1043     V1044    9.999   .     S
V1044     V432    10.0   1_655     S
Li1045     Ce1047    10.001   .     S
Li1045     Be1046    9.999   .     S
Li1045     Li1075    10.0   .     S
Li1045     Li1048    10.001   .     S
Be1046     Ce1050    9.999   .     S
Be1046     Ce1047    10.0   .     S
Ce1047     Be1049    9.999   .     S
Ce1047     Er1053    10.0   .     S
Li1048     Ce1050    10.001   .     S
Li1048     Be1049    9.999   .     S
Li1048     Li1091    10.0   .     S
Be1049     Ce1050    10.0   .     S
Er1051     Er1053    10.0   .     S
Er1051     Ce1077    10.0   .     S
Er1051     V1052    9.999   .     S
V1052     V1054    10.0   .     S
V1052     V1168    10.0   1_554     S
Er1053     V1054    9.999   .     S
Er1055     Er1057    10.0   .     S
Er1055     Ce1064    10.0   .     S
Er1055     V1056    9.999   .     S
V1056     V1478    10.0   .     S
V1056     V1058    10.0   .     S
Er1057     Ce1087    10.0   .     S
Er1057     V1058    9.999   .     S
V1058     V412    10.0   1_556     S
Li1059     Ce1061    10.001   .     S
Li1059     Be1060    9.999   .     S
Li1059     Li1065    10.0   .     S
Li1059     Li1062    10.001   .     S
Be1060     Ce1064    9.999   .     S
Be1060     Ce1061    10.0   .     S
Ce1061     Be1063    9.999   .     S
Ce1061     Er1073    10.0   .     S
Li1062     Ce1064    10.001   .     S
Li1062     Be1063    9.999   .     S
Li1062     Li1085    10.0   .     S
Be1063     Ce1064    10.0   .     S
Li1065     Ce1067    10.001   .     S
Li1065     Be1066    9.999   .     S
Li1065     Li1068    10.001   1_455     S
Be1066     Ce1070    9.999   1_455     S
Be1066     Ce1067    10.0   .     S
Ce1067     Be1069    9.999   1_455     S
Ce1067     Er1071    10.0   .     S
Li1068     Ce1070    10.001   .     S
Li1068     Be1069    9.999   .     S
Li1068     Li1078    10.0   .     S
Li1068     Li1065    10.001   1_655     S
Be1069     Ce1067    9.999   1_655     S
Be1069     Ce1070    10.0   .     S
Ce1070     Be1066    9.999   1_655     S
Ce1070     Er1081    10.0   .     S
Er1071     V1072    9.999   .     S
Er1071     C1417    10.0   .     S
Er1071     Er1073    10.0   .     S
V1072     S1416    10.0   .     S
V1072     V1152    10.0   1_455     S
V1072     V1074    10.0   .     S
Er1073     V1074    9.999   .     S
Er1073     C1417    10.0   .     S
V1074     S1416    10.0   .     S
Li1075     Ce1077    10.001   .     S
Li1075     Be1076    9.999   .     S
Li1075     Li1078    10.001   1_554     S
Be1076     Ce1080    9.999   1_554     S
Be1076     Ce1077    10.0   .     S
Ce1077     Be1079    9.999   1_554     S
Li1078     Ce1080    10.001   .     S
Li1078     Be1079    9.999   .     S
Li1078     Li1075    10.001   1_556     S
Be1079     Ce1077    9.999   1_556     S
Be1079     Ce1080    10.0   .     S
Ce1080     Be1076    9.999   1_556     S
Ce1080     Er1083    10.0   .     S
Er1081     Er1083    10.0   .     S
Er1081     V1082    9.999   .     S
V1082     V1452    10.0   1_655     S
V1082     V1084    10.0   .     S
Er1083     V1084    9.999   .     S
V1084     V666    10.0   1_556     S
Li1085     Ce1087    10.001   .     S
Li1085     Be1086    9.999   .     S
Li1085     Li1088    10.001   1_556     S
Be1086     Ce1090    9.999   1_556     S
Be1086     Ce1087    10.0   .     S
Ce1087     Be1089    9.999   1_556     S
Li1088     Ce1090    10.001   .     S
Li1088     Be1089    9.999   .     S
Li1088     Li1094    10.0   .     S
Li1088     Li1085    10.001   1_554     S
Be1089     Ce1087    9.999   1_554     S
Be1089     Ce1090    10.0   .     S
Ce1090     Be1086    9.999   1_554     S
Ce1090     Er1097    10.0   .     S
Li1091     Ce1093    10.001   .     S
Li1091     Be1092    9.999   .     S
Li1091     Li1094    10.001   1_655     S
Be1092     Ce1096    9.999   1_655     S
Be1092     Ce1093    10.0   .     S
Ce1093     Be1095    9.999   1_655     S
Li1094     Ce1096    10.001   .     S
Li1094     Be1095    9.999   .     S
Li1094     Li1091    10.001   1_455     S
Be1095     Ce1093    9.999   1_455     S
Be1095     Ce1096    10.0   .     S
Ce1096     Be1092    9.999   1_455     S
Ce1096     Er1099    10.0   .     S
Er1097     Er1099    10.0   .     S
Er1097     V1098    9.999   .     S
V1098     V1100    10.0   .     S
V1098     V970    10.0   1_554     S
Er1099     V1100    9.999   .     S
V1100     V906    10.0   1_455     S
C1101     S1102    9.999   .     S
C1101     Er1195    10.0   .     S
C1101     Er1193    10.0   .     S
S1102     B1103    10.0   .     S
S1102     V1196    10.0   .     S
S1102     V1194    10.0   .     S
B1103     He1105    10.0   .     S
B1103     B1252    10.0   .     S
He1104     He1105    9.998   .     S
He1104     B1108    10.0   .     S
He1105     He1248    10.0   .     S
C1106     S1107    9.999   .     S
C1106     Er1127    10.0   .     S
C1106     Er1125    10.0   .     S
S1107     B1108    10.0   .     S
S1107     V1126    10.0   .     S
S1107     V1128    10.0   .     S
Li1109     Ce1111    10.001   .     S
Li1109     Be1110    9.999   .     S
Li1109     Li1162    10.0   .     S
Li1109     Li1112    10.001   .     S
Be1110     Ce1114    9.999   .     S
Be1110     Ce1111    10.0   .     S
Ce1111     Be1113    9.999   .     S
Ce1111     Er1165    10.0   .     S
Li1112     Ce1114    10.001   .     S
Li1112     Be1113    9.999   .     S
Li1112     Li1119    10.0   .     S
Be1113     Ce1114    10.0   .     S
Ce1114     Er1115    10.0   .     S
Er1115     Er1117    10.0   .     S
Er1115     V1116    9.999   .     S
V1116     V1118    10.0   .     S
V1116     V1536    10.0   .     S
Er1117     Ce1121    10.0   .     S
Er1117     V1118    9.999   .     S
V1118     V1178    10.0   .     S
Li1119     Ce1121    10.001   .     S
Li1119     Be1120    9.999   .     S
Li1119     Li1122    10.001   .     S
Be1120     Ce1124    9.999   .     S
Be1120     Ce1121    10.0   .     S
Ce1121     Be1123    9.999   .     S
Li1122     Ce1124    10.001   .     S
Li1122     Be1123    9.999   .     S
Li1122     Li1132    10.0   .     S
Be1123     Ce1124    10.0   .     S
Ce1124     Er1127    10.0   .     S
Er1125     Er1127    10.0   .     S
Er1125     Ce1134    10.0   .     S
Er1125     V1126    9.999   .     S
V1126     V1128    10.0   .     S
Er1127     V1128    9.999   .     S
Li1129     Ce1131    10.001   .     S
Li1129     Be1130    9.999   .     S
Li1129     Li1142    10.0   .     S
Li1129     Li1132    10.001   .     S
Be1130     Ce1134    9.999   .     S
Be1130     Ce1131    10.0   .     S
Ce1131     Be1133    9.999   .     S
Ce1131     Er1135    10.0   .     S
Li1132     Ce1134    10.001   .     S
Li1132     Be1133    9.999   .     S
Be1133     Ce1134    10.0   .     S
Er1135     Er1137    10.0   .     S
Er1135     V1136    9.999   .     S
V1136     V1138    10.0   .     S
V1136     V1198    10.0   .     S
Er1137     Ce1144    10.0   .     S
Er1137     V1138    9.999   .     S
Li1139     Ce1141    10.001   .     S
Li1139     Be1140    9.999   .     S
Li1139     Li1148    10.0   .     S
Li1139     Li1142    10.001   .     S
Be1140     Ce1144    9.999   .     S
Be1140     Ce1141    10.0   .     S
Ce1141     Be1143    9.999   .     S
Ce1141     Er1153    10.0   .     S
Li1142     Ce1144    10.001   .     S
Li1142     Be1143    9.999   .     S
Be1143     Ce1144    10.0   .     S
Li1145     Ce1147    10.001   .     S
Li1145     Be1146    9.999   .     S
Li1145     Li1159    10.0   .     S
Li1145     Li1148    10.001   .     S
Be1146     Ce1150    9.999   .     S
Be1146     Ce1147    10.0   .     S
Ce1147     Be1149    9.999   .     S
Ce1147     Er1155    10.0   .     S
Li1148     Ce1150    10.001   .     S
Li1148     Be1149    9.999   .     S
Be1149     Ce1150    10.0   .     S
Ce1150     Er1151    10.0   .     S
Er1151     Er1153    10.0   .     S
Er1151     V1152    9.999   .     S
V1152     V1072    10.0   1_655     S
V1152     V1154    10.0   .     S
Er1153     V1154    9.999   .     S
V1154     V950    10.0   1_655     S
Er1155     Er1157    10.0   .     S
Er1155     V1156    9.999   .     S
V1156     V1158    10.0   .     S
Er1157     Ce1161    10.0   .     S
Er1157     V1158    9.999   .     S
V1158     V1508    10.0   .     S
Li1159     Ce1161    10.001   .     S
Li1159     Be1160    9.999   .     S
Li1159     Li1162    10.001   .     S
Be1160     Ce1164    9.999   .     S
Be1160     Ce1161    10.0   .     S
Ce1161     Be1163    9.999   .     S
Li1162     Ce1164    10.001   .     S
Li1162     Be1163    9.999   .     S
Be1163     Ce1164    10.0   .     S
Ce1164     Er1167    10.0   .     S
Er1165     V1166    9.999   .     S
Er1165     C1401    10.0   .     S
Er1165     Er1167    10.0   .     S
V1166     S1400    10.0   .     S
V1166     V1168    10.0   .     S
V1166     V938    10.0   1_556     S
Er1167     V1168    9.999   .     S
Er1167     C1401    10.0   .     S
V1168     S1400    10.0   .     S
V1168     V1052    10.0   1_556     S
S1169     C1170    9.999   .     S
S1169     B1171    10.0   .     S
S1169     V1554    10.0   .     S
S1169     V1556    10.0   .     S
C1170     Er1555    10.0   .     S
C1170     Er1553    10.0   .     S
B1171     He1175    10.0   .     S
B1172     S1173    10.0   .     S
B1172     He1176    10.0   .     S
S1173     C1174    9.999   .     S
S1173     V1346    10.0   .     S
S1173     V1344    10.0   .     S
C1174     Er1345    10.0   .     S
C1174     Er1343    10.0   .     S
He1175     He1176    9.998   .     S
Er1177     Er1179    10.0   .     S
Er1177     Ce1186    10.0   .     S
Er1177     V1178    9.999   .     S
V1178     V1180    10.0   .     S
Er1179     Ce1232    10.0   .     S
Er1179     V1180    9.999   .     S
V1180     V1534    10.0   .     S
Li1181     Ce1183    10.001   .     S
Li1181     Be1182    9.999   .     S
Li1181     Li1187    10.0   .     S
Li1181     Li1184    10.001   .     S
Be1182     Ce1186    9.999   .     S
Be1182     Ce1183    10.0   .     S
Ce1183     Be1185    9.999   .     S
Ce1183     Er1193    10.0   .     S
Li1184     Ce1186    10.001   .     S
Li1184     Be1185    9.999   .     S
Li1184     Li1230    10.0   .     S
Be1185     Ce1186    10.0   .     S
Li1187     Ce1189    10.001   .     S
Li1187     Be1188    9.999   .     S
Li1187     Li1190    10.001   .     S
Be1188     Ce1192    9.999   .     S
Be1188     Ce1189    10.0   .     S
Ce1189     Be1191    9.999   .     S
Ce1189     Er1195    10.0   .     S
Li1190     Ce1192    10.001   .     S
Li1190     Be1191    9.999   .     S
Li1190     Li1204    10.0   .     S
Be1191     Ce1192    10.0   .     S
Ce1192     Er1197    10.0   .     S
Er1193     Er1195    10.0   .     S
Er1193     V1194    9.999   .     S
V1194     V1196    10.0   .     S
Er1195     V1196    9.999   .     S
V1196     V1620    10.0   .     S
Er1197     V1198    9.999   .     S
Er1197     C1569    10.0   .     S
Er1197     Er1199    10.0   .     S
V1198     S1570    10.0   .     S
V1198     V1200    10.0   .     S
Er1199     Ce1206    10.0   .     S
Er1199     V1200    9.999   .     S
Er1199     C1569    10.0   .     S
V1200     S1570    10.0   .     S
Li1201     Ce1203    10.001   .     S
Li1201     Be1202    9.999   .     S
Li1201     Li1207    10.0   .     S
Li1201     Li1204    10.001   .     S
Be1202     Ce1206    9.999   .     S
Be1202     Ce1203    10.0   .     S
Ce1203     Be1205    9.999   .     S
Ce1203     Er1213    10.0   .     S
Li1204     Ce1206    10.001   .     S
Li1204     Be1205    9.999   .     S
Be1205     Ce1206    10.0   .     S
Li1207     Ce1209    10.001   .     S
Li1207     Be1208    9.999   .     S
Li1207     Li1210    10.001   .     S
Be1208     Ce1212    9.999   .     S
Be1208     Ce1209    10.0   .     S
Ce1209     Be1211    9.999   .     S
Ce1209     Er1215    10.0   .     S
Li1210     Ce1212    10.001   .     S
Li1210     Be1211    9.999   .     S
Li1210     Li1224    10.0   .     S
Be1211     Ce1212    10.0   .     S
Ce1212     Er1217    10.0   .     S
Er1213     Er1215    10.0   .     S
Er1213     V1214    9.999   .     S
V1214     V1216    10.0   .     S
V1214     V1604    10.0   .     S
Er1215     V1216    9.999   .     S
Er1217     Er1219    10.0   .     S
Er1217     V1218    9.999   .     S
V1218     V1220    10.0   .     S
Er1219     Ce1226    10.0   .     S
Er1219     V1220    9.999   .     S
V1220     V1556    10.0   .     S
Li1221     Ce1223    10.001   .     S
Li1221     Be1222    9.999   .     S
Li1221     Li1227    10.0   .     S
Li1221     Li1224    10.001   .     S
Be1222     Ce1226    9.999   .     S
Be1222     Ce1223    10.0   .     S
Ce1223     Be1225    9.999   .     S
Ce1223     Er1233    10.0   .     S
Li1224     Ce1226    10.001   .     S
Li1224     Be1225    9.999   .     S
Be1225     Ce1226    10.0   .     S
Li1227     Ce1229    10.001   .     S
Li1227     Be1228    9.999   .     S
Li1227     Li1230    10.001   .     S
Be1228     Ce1232    9.999   .     S
Be1228     Ce1229    10.0   .     S
Ce1229     Be1231    9.999   .     S
Ce1229     Er1235    10.0   .     S
Li1230     Ce1232    10.001   .     S
Li1230     Be1231    9.999   .     S
Be1231     Ce1232    10.0   .     S
Er1233     V1234    9.999   .     S
Er1233     C1253    10.0   .     S
Er1233     Er1235    10.0   .     S
V1234     S1254    10.0   .     S
V1234     V1236    10.0   .     S
Er1235     V1236    9.999   .     S
Er1235     C1253    10.0   .     S
V1236     S1254    10.0   .     S
B1237     S1238    10.0   1_554     S
B1237     He1241    10.0   .     S
S1238     B1237    10.0   1_556     S
S1238     C1239    9.999   .     S
He1240     He1241    9.998   .     S
He1240     B1244    10.0   .     S
C1242     Er1379    10.0   .     S
C1242     S1243    9.999   .     S
C1242     Er1381    10.0   .     S
S1243     B1244    10.0   1_556     S
S1243     V1382    10.0   .     S
S1243     V1380    10.0   .     S
B1244     S1243    10.0   1_554     S
C1245     Er1359    10.0   .     S
C1245     S1246    9.999   .     S
C1245     Er1361    10.0   .     S
S1246     B1247    10.0   .     S
S1246     V1362    10.0   .     S
S1246     V1360    10.0   .     S
B1247     He1249    10.0   .     S
He1248     He1249    9.998   .     S
He1248     B1252    10.0   .     S
C1250     S1251    9.999   .     S
S1251     B1252    10.0   .     S
C1253     S1254    9.999   .     S
S1254     B1255    10.0   .     S
B1255     He1260    10.0   .     S
C1256     S1257    9.999   .     S
C1256     Er1537    10.0   .     S
C1256     Er1539    10.0   .     S
S1257     B1258    10.0   .     S
S1257     V1540    10.0   .     S
S1257     V1538    10.0   .     S
B1258     He1259    10.0   .     S
B1258     B1415    10.0   .     S
He1259     He1260    9.998   .     S
He1259     He1419    10.0   .     S
B1261     S1262    10.0   .     S
B1261     He1267    10.0   .     S
S1262     C1263    9.999   .     S
S1262     V1290    10.0   .     S
S1262     V1292    10.0   .     S
C1263     Er1289    10.0   .     S
C1263     Er1291    10.0   .     S
S1264     C1265    9.999   .     S
S1264     B1266    10.0   .     S
S1264     V1508    10.0   .     S
S1264     V1510    10.0   .     S
C1265     Er1507    10.0   .     S
C1265     Er1509    10.0   .     S
B1266     He1268    10.0   .     S
He1267     He1268    9.998   .     S
Er1269     Ce1278    10.0   .     S
Er1269     V1270    9.999   .     S
Er1269     C1330    10.0   .     S
Er1269     Er1271    10.0   .     S
V1270     S1329    10.0   .     S
V1270     V1272    10.0   .     S
Er1271     Ce1315    10.0   .     S
Er1271     V1272    9.999   .     S
Er1271     C1330    10.0   .     S
V1272     S1329    10.0   .     S
V1272     V1586    10.0   1_556     S
Li1273     Ce1275    10.001   .     S
Li1273     Be1274    9.999   .     S
Li1273     Li1279    10.0   .     S
Li1273     Li1276    10.001   .     S
Be1274     Ce1278    9.999   .     S
Be1274     Ce1275    10.0   .     S
Ce1275     Be1277    9.999   .     S
Ce1275     Er1287    10.0   .     S
Li1276     Ce1278    10.001   .     S
Li1276     Be1277    9.999   .     S
Li1276     Li1313    10.0   .     S
Be1277     Ce1278    10.0   .     S
Li1279     Ce1281    10.001   .     S
Li1279     Be1280    9.999   .     S
Li1279     Li1282    10.001   1_545     S
Be1280     Ce1284    9.999   1_545     S
Be1280     Ce1281    10.0   .     S
Ce1281     Be1283    9.999   1_545     S
Ce1281     Er1285    10.0   .     S
Li1282     Ce1284    10.001   .     S
Li1282     Be1283    9.999   .     S
Li1282     Li1306    10.0   .     S
Li1282     Li1279    10.001   1_565     S
Be1283     Ce1281    9.999   1_565     S
Be1283     Ce1284    10.0   .     S
Ce1284     Be1280    9.999   1_565     S
Ce1284     Er1289    10.0   .     S
Er1285     Er1287    10.0   .     S
Er1285     V1286    9.999   .     S
V1286     V1288    10.0   .     S
V1286     V1506    10.0   1_545     S
Er1287     V1288    9.999   .     S
V1288     V1360    10.0   .     S
Er1289     Er1291    10.0   .     S
Er1289     V1290    9.999   .     S
V1290     V912    10.0   1_565     S
V1290     V1292    10.0   .     S
Er1291     Ce1308    10.0   .     S
Er1291     V1292    9.999   .     S
V1292     V642    10.0   1_556     S
Er1293     Ce1302    10.0   .     S
Er1293     V1294    9.999   .     S
Er1293     C1422    10.0   .     S
Er1293     Er1295    10.0   .     S
V1294     S1421    10.0   .     S
V1294     V1296    10.0   .     S
Er1295     Ce1321    10.0   .     S
Er1295     V1296    9.999   .     S
Er1295     C1422    10.0   .     S
V1296     S1421    10.0   .     S
V1296     V1632    10.0   1_565     S
Li1297     Ce1299    10.001   .     S
Li1297     Be1298    9.999   .     S
Li1297     Li1303    10.0   .     S
Li1297     Li1300    10.001   .     S
Be1298     Ce1302    9.999   .     S
Be1298     Ce1299    10.0   .     S
Ce1299     Be1301    9.999   .     S
Ce1299     Er1311    10.0   .     S
Li1300     Ce1302    10.001   .     S
Li1300     Be1301    9.999   .     S
Li1300     Li1319    10.0   .     S
Be1301     Ce1302    10.0   .     S
Li1303     Ce1305    10.001   .     S
Li1303     Be1304    9.999   .     S
Li1303     Li1306    10.001   1_554     S
Be1304     Ce1308    9.999   1_554     S
Be1304     Ce1305    10.0   .     S
Ce1305     Be1307    9.999   1_554     S
Ce1305     Er1309    10.0   .     S
Li1306     Ce1308    10.001   .     S
Li1306     Be1307    9.999   .     S
Li1306     Li1303    10.001   1_556     S
Be1307     Ce1305    9.999   1_556     S
Be1307     Ce1308    10.0   .     S
Ce1308     Be1304    9.999   1_556     S
Er1309     Er1311    10.0   .     S
Er1309     V1310    9.999   .     S
V1310     V1518    10.0   1_554     S
V1310     V1312    10.0   .     S
Er1311     V1312    9.999   .     S
V1312     V1446    10.0   .     S
Li1313     Ce1315    10.001   .     S
Li1313     Be1314    9.999   .     S
Li1313     Li1316    10.001   1_556     S
Be1314     Ce1318    9.999   1_556     S
Be1314     Ce1315    10.0   .     S
Ce1315     Be1317    9.999   1_556     S
Li1316     Ce1318    10.001   .     S
Li1316     Be1317    9.999   .     S
Li1316     Li1322    10.0   .     S
Li1316     Li1313    10.001   1_554     S
Be1317     Ce1315    9.999   1_554     S
Be1317     Ce1318    10.0   .     S
Ce1318     Be1314    9.999   1_554     S
Ce1318     Er1325    10.0   .     S
Li1319     Ce1321    10.001   .     S
Li1319     Be1320    9.999   .     S
Li1319     Li1322    10.001   1_565     S
Be1320     Ce1324    9.999   1_565     S
Be1320     Ce1321    10.0   .     S
Ce1321     Be1323    9.999   1_565     S
Li1322     Ce1324    10.001   .     S
Li1322     Be1323    9.999   .     S
Li1322     Li1319    10.001   1_545     S
Be1323     Ce1321    9.999   1_545     S
Be1323     Ce1324    10.0   .     S
Ce1324     Be1320    9.999   1_545     S
Ce1324     Er1327    10.0   .     S
Er1325     Er1327    10.0   .     S
Er1325     V1326    9.999   .     S
V1326     V1380    10.0   1_554     S
V1326     V1328    10.0   .     S
Er1327     V1328    9.999   .     S
V1328     V1470    10.0   1_545     S
S1329     C1330    9.999   .     S
S1329     B1331    10.0   .     S
B1331     He1335    10.0   .     S
B1331     B1562    10.0   .     S
S1332     C1333    9.999   .     S
S1332     B1334    10.0   .     S
S1332     V1370    10.0   .     S
S1332     V1372    10.0   .     S
C1333     Er1369    10.0   .     S
C1333     Er1371    10.0   .     S
B1334     He1336    10.0   .     S
He1335     He1336    9.998   .     S
He1335     He1563    10.0   .     S
Li1337     Ce1339    10.001   .     S
Li1337     Be1338    9.999   .     S
Li1337     Li1390    10.0   .     S
Li1337     Li1340    10.001   .     S
Be1338     Ce1342    9.999   .     S
Be1338     Ce1339    10.0   .     S
Ce1339     Be1341    9.999   .     S
Ce1339     Er1393    10.0   .     S
Li1340     Ce1342    10.001   .     S
Li1340     Be1341    9.999   .     S
Li1340     Li1350    10.0   .     S
Be1341     Ce1342    10.0   .     S
Ce1342     Er1345    10.0   .     S
Er1343     Er1345    10.0   .     S
Er1343     Ce1352    10.0   .     S
Er1343     V1344    9.999   .     S
V1344     V1346    10.0   .     S
V1344     V842    10.0   1_565     S
Er1345     V1346    9.999   .     S
Li1347     Ce1349    10.001   .     S
Li1347     Be1348    9.999   .     S
Li1347     Li1356    10.0   .     S
Li1347     Li1350    10.001   1_545     S
Be1348     Ce1352    9.999   1_545     S
Be1348     Ce1349    10.0   .     S
Ce1349     Be1351    9.999   1_545     S
Ce1349     Er1361    10.0   .     S
Li1350     Ce1352    10.001   .     S
Li1350     Be1351    9.999   .     S
Li1350     Li1347    10.001   1_565     S
Be1351     Ce1349    9.999   1_565     S
Be1351     Ce1352    10.0   .     S
Ce1352     Be1348    9.999   1_565     S
Li1353     Ce1355    10.001   .     S
Li1353     Be1354    9.999   .     S
Li1353     Li1373    10.0   .     S
Li1353     Li1356    10.001   .     S
Be1354     Ce1358    9.999   .     S
Be1354     Ce1355    10.0   .     S
Ce1355     Be1357    9.999   .     S
Ce1355     Er1369    10.0   .     S
Li1356     Ce1358    10.001   .     S
Li1356     Be1357    9.999   .     S
Be1357     Ce1358    10.0   .     S
Ce1358     Er1359    10.0   .     S
Er1359     Er1361    10.0   .     S
Er1359     V1360    9.999   .     S
V1360     V1362    10.0   .     S
Er1361     V1362    9.999   .     S
V1362     V1504    10.0   1_545     S
Li1363     Ce1365    10.001   .     S
Li1363     Be1364    9.999   .     S
Li1363     Li1376    10.0   .     S
Li1363     Li1366    10.001   1_545     S
Be1364     Ce1368    9.999   1_545     S
Be1364     Ce1365    10.0   .     S
Ce1365     Be1367    9.999   1_545     S
Ce1365     Er1381    10.0   .     S
Li1366     Ce1368    10.001   .     S
Li1366     Be1367    9.999   .     S
Li1366     Li1387    10.0   .     S
Li1366     Li1363    10.001   1_565     S
Be1367     Ce1365    9.999   1_565     S
Be1367     Ce1368    10.0   .     S
Ce1368     Be1364    9.999   1_565     S
Ce1368     Er1383    10.0   .     S
Er1369     Er1371    10.0   .     S
Er1369     V1370    9.999   .     S
V1370     V1372    10.0   .     S
Er1371     Ce1375    10.0   .     S
Er1371     V1372    9.999   .     S
Li1373     Ce1375    10.001   .     S
Li1373     Be1374    9.999   .     S
Li1373     Li1376    10.001   .     S
Be1374     Ce1378    9.999   .     S
Be1374     Ce1375    10.0   .     S
Ce1375     Be1377    9.999   .     S
Li1376     Ce1378    10.001   .     S
Li1376     Be1377    9.999   .     S
Be1377     Ce1378    10.0   .     S
Ce1378     Er1379    10.0   .     S
Er1379     Er1381    10.0   .     S
Er1379     V1380    9.999   .     S
V1380     V1326    10.0   1_556     S
V1380     V1382    10.0   .     S
Er1381     V1382    9.999   .     S
V1382     V1468    10.0   1_546     S
Er1383     V1384    9.999   .     S
Er1383     Er1385    10.0   .     S
Er1383     C1433    10.0   .     S
V1384     S1432    10.0   .     S
V1384     V1386    10.0   .     S
V1384     V962    10.0   1_465     S
Er1385     Ce1389    10.0   .     S
Er1385     V1386    9.999   .     S
Er1385     C1433    10.0   .     S
V1386     S1432    10.0   .     S
V1386     V742    10.0   1_455     S
Li1387     Ce1389    10.001   .     S
Li1387     Be1388    9.999   .     S
Li1387     Li1390    10.001   .     S
Be1388     Ce1392    9.999   .     S
Be1388     Ce1389    10.0   .     S
Ce1389     Be1391    9.999   .     S
Li1390     Ce1392    10.001   .     S
Li1390     Be1391    9.999   .     S
Be1391     Ce1392    10.0   .     S
Ce1392     Er1395    10.0   .     S
Er1393     Er1395    10.0   .     S
Er1393     V1394    9.999   .     S
V1394     V1396    10.0   .     S
V1394     V1540    10.0   .     S
Er1395     V1396    9.999   .     S
V1396     V1496    10.0   .     S
C1397     S1398    9.999   .     S
C1397     Er1519    10.0   .     S
C1397     Er1517    10.0   .     S
S1398     B1399    10.0   1_556     S
S1398     V1518    10.0   .     S
S1398     V1520    10.0   .     S
B1399     S1398    10.0   1_554     S
B1399     He1404    10.0   .     S
S1400     C1401    9.999   .     S
S1400     B1402    10.0   1_556     S
B1402     S1400    10.0   1_554     S
B1402     He1403    10.0   .     S
He1403     He1404    9.998   .     S
B1405     S1406    10.0   .     S
B1405     He1411    10.0   .     S
B1405     B1559    10.0   .     S
S1406     C1407    9.999   .     S
S1406     V1478    10.0   .     S
S1406     V1480    10.0   .     S
C1407     Er1477    10.0   .     S
C1407     Er1479    10.0   .     S
B1408     S1409    10.0   .     S
B1408     He1412    10.0   .     S
S1409     C1410    9.999   .     S
S1409     V1534    10.0   .     S
S1409     V1536    10.0   .     S
C1410     Er1533    10.0   .     S
C1410     Er1535    10.0   .     S
He1411     He1412    9.998   .     S
He1411     He1564    10.0   .     S
S1413     C1414    9.999   .     S
S1413     B1415    10.0   .     S
S1413     V1496    10.0   .     S
S1413     V1494    10.0   .     S
C1414     Er1495    10.0   .     S
C1414     Er1493    10.0   .     S
B1415     He1419    10.0   .     S
S1416     C1417    9.999   .     S
S1416     B1418    10.0   .     S
B1418     He1420    10.0   .     S
He1419     He1420    9.998   .     S
S1421     C1422    9.999   .     S
S1421     B1423    10.0   .     S
B1423     He1427    10.0   .     S
B1424     S1425    10.0   .     S
B1424     He1428    10.0   .     S
S1425     C1426    9.999   .     S
S1425     V1450    10.0   .     S
S1425     V1448    10.0   .     S
C1426     Er1447    10.0   .     S
C1426     Er1449    10.0   .     S
He1427     He1428    9.998   .     S
S1429     C1430    9.999   .     S
S1429     B1431    10.0   1_455     S
S1429     V1454    10.0   .     S
S1429     V1452    10.0   .     S
C1430     Er1451    10.0   .     S
C1430     Er1453    10.0   .     S
B1431     S1429    10.0   1_655     S
B1431     He1436    10.0   .     S
S1432     C1433    9.999   .     S
S1432     B1434    10.0   1_455     S
B1434     S1432    10.0   1_655     S
B1434     He1435    10.0   .     S
He1435     He1436    9.998   .     S
Li1437     Ce1439    10.001   .     S
Li1437     Be1438    9.999   .     S
Li1437     Li1464    10.0   .     S
Li1437     Li1440    10.001   .     S
Be1438     Ce1442    9.999   .     S
Be1438     Ce1439    10.0   .     S
Ce1439     Be1441    9.999   .     S
Ce1439     Er1447    10.0   .     S
Li1440     Ce1442    10.001   .     S
Li1440     Be1441    9.999   .     S
Li1440     Li1471    10.0   .     S
Be1441     Ce1442    10.0   .     S
Ce1442     Er1445    10.0   .     S
Er1443     Er1445    10.0   .     S
Er1443     Ce1473    10.0   .     S
Er1443     V1444    9.999   .     S
V1444     V1446    10.0   .     S
V1444     V1520    10.0   1_554     S
Er1445     V1446    9.999   .     S
Er1447     Er1449    10.0   .     S
Er1447     V1448    9.999   .     S
V1448     V1450    10.0   .     S
Er1449     Ce1466    10.0   .     S
Er1449     V1450    9.999   .     S
Er1451     Er1453    10.0   .     S
Er1451     Ce1489    10.0   .     S
Er1451     V1452    9.999   .     S
V1452     V1454    10.0   .     S
V1452     V1082    10.0   1_455     S
Er1453     Ce1460    10.0   .     S
Er1453     V1454    9.999   .     S
V1454     V664    10.0   1_456     S
Li1455     Ce1457    10.001   .     S
Li1455     Be1456    9.999   .     S
Li1455     Li1461    10.0   .     S
Li1455     Li1458    10.001   1_554     S
Be1456     Ce1460    9.999   1_554     S
Be1456     Ce1457    10.0   .     S
Ce1457     Be1459    9.999   1_554     S
Ce1457     Er1467    10.0   .     S
Li1458     Ce1460    10.001   .     S
Li1458     Be1459    9.999   .     S
Li1458     Li1487    10.0   .     S
Li1458     Li1455    10.001   1_556     S
Be1459     Ce1457    9.999   1_556     S
Be1459     Ce1460    10.0   .     S
Ce1460     Be1456    9.999   1_556     S
Li1461     Ce1463    10.001   .     S
Li1461     Be1462    9.999   .     S
Li1461     Li1464    10.001   .     S
Be1462     Ce1466    9.999   .     S
Be1462     Ce1463    10.0   .     S
Ce1463     Be1465    9.999   .     S
Ce1463     Er1469    10.0   .     S
Li1464     Ce1466    10.001   .     S
Li1464     Be1465    9.999   .     S
Be1465     Ce1466    10.0   .     S
Er1467     Er1469    10.0   .     S
Er1467     V1468    9.999   .     S
V1468     V1470    10.0   .     S
V1468     V1382    10.0   1_564     S
Er1469     V1470    9.999   .     S
V1470     V1328    10.0   1_565     S
Li1471     Ce1473    10.001   .     S
Li1471     Be1472    9.999   .     S
Li1471     Li1474    10.001   1_554     S
Be1472     Ce1476    9.999   1_554     S
Be1472     Ce1473    10.0   .     S
Ce1473     Be1475    9.999   1_554     S
Li1474     Ce1476    10.001   .     S
Li1474     Be1475    9.999   .     S
Li1474     Li1484    10.0   .     S
Li1474     Li1471    10.001   1_556     S
Be1475     Ce1473    9.999   1_556     S
Be1475     Ce1476    10.0   .     S
Ce1476     Be1472    9.999   1_556     S
Ce1476     Er1479    10.0   .     S
Er1477     Er1479    10.0   .     S
Er1477     Ce1486    10.0   .     S
Er1477     V1478    9.999   .     S
V1478     V1480    10.0   .     S
Er1479     V1480    9.999   .     S
V1480     V410    10.0   1_556     S
Li1481     Ce1483    10.001   .     S
Li1481     Be1482    9.999   .     S
Li1481     Li1490    10.0   .     S
Li1481     Li1484    10.001   .     S
Be1482     Ce1486    9.999   .     S
Be1482     Ce1483    10.0   .     S
Ce1483     Be1485    9.999   .     S
Ce1483     Er1493    10.0   .     S
Li1484     Ce1486    10.001   .     S
Li1484     Be1485    9.999   .     S
Be1485     Ce1486    10.0   .     S
Li1487     Ce1489    10.001   .     S
Li1487     Be1488    9.999   .     S
Li1487     Li1490    10.001   .     S
Be1488     Ce1492    9.999   .     S
Be1488     Ce1489    10.0   .     S
Ce1489     Be1491    9.999   .     S
Li1490     Ce1492    10.001   .     S
Li1490     Be1491    9.999   .     S
Be1491     Ce1492    10.0   .     S
Ce1492     Er1495    10.0   .     S
Er1493     Er1495    10.0   .     S
Er1493     V1494    9.999   .     S
V1494     V1538    10.0   .     S
V1494     V1496    10.0   .     S
Er1495     V1496    9.999   .     S
Li1497     Ce1499    10.001   .     S
Li1497     Be1498    9.999   .     S
Li1497     Li1514    10.0   .     S
Li1497     Li1500    10.001   .     S
Be1498     Ce1502    9.999   .     S
Be1498     Ce1499    10.0   .     S
Ce1499     Be1501    9.999   .     S
Ce1499     Er1509    10.0   .     S
Li1500     Ce1502    10.001   .     S
Li1500     Be1501    9.999   .     S
Li1500     Li1547    10.0   .     S
Be1501     Ce1502    10.0   .     S
Ce1502     Er1505    10.0   .     S
Er1503     Er1505    10.0   .     S
Er1503     Ce1549    10.0   .     S
Er1503     V1504    9.999   .     S
V1504     V1506    10.0   .     S
V1504     V1362    10.0   1_565     S
Er1505     V1506    9.999   .     S
V1506     V1286    10.0   1_565     S
Er1507     Er1509    10.0   .     S
Er1507     Ce1516    10.0   .     S
Er1507     V1508    9.999   .     S
V1508     V1510    10.0   .     S
Er1509     V1510    9.999   .     S
Li1511     Ce1513    10.001   .     S
Li1511     Be1512    9.999   .     S
Li1511     Li1521    10.0   .     S
Li1511     Li1514    10.001   .     S
Be1512     Ce1516    9.999   .     S
Be1512     Ce1513    10.0   .     S
Ce1513     Be1515    9.999   .     S
Ce1513     Er1517    10.0   .     S
Li1514     Ce1516    10.001   .     S
Li1514     Be1515    9.999   .     S
Be1515     Ce1516    10.0   .     S
Er1517     Er1519    10.0   .     S
Er1517     V1518    9.999   .     S
V1518     V1310    10.0   1_556     S
V1518     V1520    10.0   .     S
Er1519     Ce1523    10.0   .     S
Er1519     V1520    9.999   .     S
V1520     V1444    10.0   1_556     S
Li1521     Ce1523    10.001   .     S
Li1521     Be1522    9.999   .     S
Li1521     Li1524    10.001   .     S
Be1522     Ce1526    9.999   .     S
Be1522     Ce1523    10.0   .     S
Ce1523     Be1525    9.999   .     S
Li1524     Ce1526    10.001   .     S
Li1524     Be1525    9.999   .     S
Li1524     Li1530    10.0   .     S
Be1525     Ce1526    10.0   .     S
Ce1526     Er1535    10.0   .     S
Li1527     Ce1529    10.001   .     S
Li1527     Be1528    9.999   .     S
Li1527     Li1544    10.0   .     S
Li1527     Li1530    10.001   .     S
Be1528     Ce1532    9.999   .     S
Be1528     Ce1529    10.0   .     S
Ce1529     Be1531    9.999   .     S
Ce1529     Er1537    10.0   .     S
Li1530     Ce1532    10.001   .     S
Li1530     Be1531    9.999   .     S
Be1531     Ce1532    10.0   .     S
Ce1532     Er1533    10.0   .     S
Er1533     Er1535    10.0   .     S
Er1533     V1534    9.999   .     S
V1534     V1536    10.0   .     S
Er1535     V1536    9.999   .     S
Er1537     Er1539    10.0   .     S
Er1537     V1538    9.999   .     S
V1538     V1540    10.0   .     S
Er1539     Ce1546    10.0   .     S
Er1539     V1540    9.999   .     S
Li1541     Ce1543    10.001   .     S
Li1541     Be1542    9.999   .     S
Li1541     Li1550    10.0   .     S
Li1541     Li1544    10.001   .     S
Be1542     Ce1546    9.999   .     S
Be1542     Ce1543    10.0   .     S
Ce1543     Be1545    9.999   .     S
Ce1543     Er1555    10.0   .     S
Li1544     Ce1546    10.001   .     S
Li1544     Be1545    9.999   .     S
Be1545     Ce1546    10.0   .     S
Li1547     Ce1549    10.001   .     S
Li1547     Be1548    9.999   .     S
Li1547     Li1550    10.001   .     S
Be1548     Ce1552    9.999   .     S
Be1548     Ce1549    10.0   .     S
Ce1549     Be1551    9.999   .     S
Li1550     Ce1552    10.001   .     S
Li1550     Be1551    9.999   .     S
Be1551     Ce1552    10.0   .     S
Ce1552     Er1553    10.0   .     S
Er1553     Er1555    10.0   .     S
Er1553     V1554    9.999   .     S
V1554     V1556    10.0   .     S
Er1555     V1556    9.999   .     S
C1557     S1558    9.999   .     S
S1558     B1559    10.0   1_554     S
B1559     S1558    10.0   1_556     S
B1559     He1564    10.0   .     S
C1560     S1561    9.999   .     S
C1560     Er1585    10.0   .     S
C1560     Er1583    10.0   .     S
S1561     B1562    10.0   1_554     S
S1561     V1586    10.0   .     S
S1561     V1584    10.0   .     S
B1562     S1561    10.0   1_556     S
B1562     He1563    10.0   .     S
He1563     He1564    9.998   .     S
B1565     S1567    10.0   .     S
B1565     He1572    10.0   .     S
C1566     S1567    9.999   .     S
C1566     Er1589    10.0   .     S
C1566     Er1587    10.0   .     S
S1567     V1590    10.0   .     S
S1567     V1588    10.0   .     S
B1568     S1570    10.0   .     S
B1568     He1571    10.0   .     S
C1569     S1570    9.999   .     S
He1571     He1572    9.998   .     S
Er1573     Er1575    10.0   .     S
Er1573     Ce1582    10.0   .     S
Er1573     V1574    9.999   .     S
V1574     V1576    10.0   .     S
Er1575     Ce1628    10.0   .     S
Er1575     V1576    9.999   .     S
Li1577     Ce1579    10.001   .     S
Li1577     Be1578    9.999   .     S
Li1577     Li1594    10.0   .     S
Li1577     Li1580    10.001   .     S
Be1578     Ce1582    9.999   .     S
Be1578     Ce1579    10.0   .     S
Ce1579     Be1581    9.999   .     S
Ce1579     Er1585    10.0   .     S
Li1580     Ce1582    10.001   .     S
Li1580     Be1581    9.999   .     S
Li1580     Li1626    10.0   .     S
Be1581     Ce1582    10.0   .     S
Er1583     Er1585    10.0   .     S
Er1583     Ce1596    10.0   .     S
Er1583     V1584    9.999   .     S
V1584     V896    10.0   1_554     S
V1584     V1586    10.0   .     S
Er1585     V1586    9.999   .     S
V1586     V1272    10.0   1_554     S
Er1587     Er1589    10.0   .     S
Er1587     Ce1599    10.0   .     S
Er1587     V1588    9.999   .     S
V1588     V1590    10.0   .     S
Er1589     Ce1615    10.0   .     S
Er1589     V1590    9.999   .     S
Li1591     Ce1593    10.001   .     S
Li1591     Be1592    9.999   .     S
Li1591     Li1600    10.0   .     S
Li1591     Li1594    10.001   .     S
Be1592     Ce1596    9.999   .     S
Be1592     Ce1593    10.0   .     S
Ce1593     Be1595    9.999   .     S
Ce1593     Er1605    10.0   .     S
Li1594     Ce1596    10.001   .     S
Li1594     Be1595    9.999   .     S
Be1595     Ce1596    10.0   .     S
Li1597     Ce1599    10.001   .     S
Li1597     Be1598    9.999   .     S
Li1597     Li1613    10.0   .     S
Li1597     Li1600    10.001   .     S
Be1598     Ce1602    9.999   .     S
Be1598     Ce1599    10.0   .     S
Ce1599     Be1601    9.999   .     S
Li1600     Ce1602    10.001   .     S
Li1600     Be1601    9.999   .     S
Be1601     Ce1602    10.0   .     S
Ce1602     Er1603    10.0   .     S
Er1603     Er1605    10.0   .     S
Er1603     V1604    9.999   .     S
V1604     V1606    10.0   .     S
Er1605     V1606    9.999   .     S
Li1607     Ce1609    10.001   .     S
Li1607     Be1608    9.999   .     S
Li1607     Li1616    10.0   .     S
Li1607     Li1610    10.001   .     S
Be1608     Ce1612    9.999   .     S
Be1608     Ce1609    10.0   .     S
Ce1609     Be1611    9.999   .     S
Ce1609     Er1621    10.0   .     S
Li1610     Ce1612    10.001   .     S
Li1610     Be1611    9.999   .     S
Li1610     Li1623    10.0   .     S
Be1611     Ce1612    10.0   .     S
Ce1612     Er1629    10.0   .     S
Li1613     Ce1615    10.001   .     S
Li1613     Be1614    9.999   .     S
Li1613     Li1616    10.001   .     S
Be1614     Ce1618    9.999   .     S
Be1614     Ce1615    10.0   .     S
Ce1615     Be1617    9.999   .     S
Li1616     Ce1618    10.001   .     S
Li1616     Be1617    9.999   .     S
Be1617     Ce1618    10.0   .     S
Ce1618     Er1619    10.0   .     S
Er1619     Er1621    10.0   .     S
Er1619     V1620    9.999   .     S
V1620     V1622    10.0   .     S
Er1621     V1622    9.999   .     S
Li1623     Ce1625    10.001   .     S
Li1623     Be1624    9.999   .     S
Li1623     Li1626    10.001   .     S
Be1624     Ce1628    9.999   .     S
Be1624     Ce1625    10.0   .     S
Ce1625     Be1627    9.999   .     S
Ce1625     Er1631    10.0   .     S
Li1626     Ce1628    10.001   .     S
Li1626     Be1627    9.999   .     S
Be1627     Ce1628    10.0   .     S
Er1629     Er1631    10.0   .     S
Er1629     V1630    9.999   .     S
V1630     V1632    10.0   .     S
V1630     V616    10.0   1_545     S
Er1631     V1632    9.999   .     S
V1632     V1296    10.0   1_545     S
