data_nazx
_audit_creation_date              2020-02-02
_audit_creation_method            'Pymatgen'
_symmetry_space_group_name_H-M    'P1'
_symmetry_Int_Tables_number       1
loop_
_symmetry_equiv_pos_as_xyz
  x,y,z
_cell_length_a                    45.5963
_cell_length_b                    45.5963
_cell_length_c                    45.5963
_cell_angle_alpha                 90.0
_cell_angle_beta                 90.0
_cell_angle_gamma                 90.0
loop_
_atom_site_label
_atom_site_type_symbol
_atom_site_fract_x
_atom_site_fract_y
_atom_site_fract_z
V1     V     0.1122   0.8239   0.0
V2     V     0.8878   0.8239   0.0
V3     V     0.0   0.6761   0.1122
V4     V     0.0   0.6761   0.8878
V5     V     0.3239   0.8878   0.0
V6     V     0.1761   0.0   0.1122
V7     V     0.1761   0.0   0.8878
V8     V     0.3239   0.1122   0.0
V9     V     0.6122   0.3239   0.0
V10     V     0.3878   0.3239   0.0
V11     V     0.5   0.1761   0.1122
V12     V     0.5   0.1761   0.8878
V13     V     0.0   0.3239   0.1122
V14     V     0.0   0.3239   0.8878
V15     V     0.1122   0.1761   0.0
V16     V     0.8878   0.1761   0.0
V17     V     0.0   0.1122   0.8239
V18     V     0.0   0.8878   0.8239
V19     V     0.1122   0.0   0.6761
V20     V     0.8878   0.0   0.6761
V21     V     0.1761   0.3878   0.0
V22     V     0.1761   0.6122   0.0
V23     V     0.3239   0.5   0.1122
V24     V     0.3239   0.5   0.8878
V25     V     0.1122   0.5   0.8239
V26     V     0.8878   0.5   0.8239
V27     V     0.0   0.3878   0.6761
V28     V     0.0   0.6122   0.6761
V29     V     0.5   0.3878   0.8239
V30     V     0.5   0.6122   0.8239
V31     V     0.3878   0.5   0.6761
V32     V     0.6122   0.5   0.6761
V33     V     0.0   0.8239   0.3878
V34     V     0.0   0.8239   0.6122
V35     V     0.1122   0.6761   0.5
V36     V     0.8878   0.6761   0.5
V37     V     0.0   0.3878   0.3239
V38     V     0.1122   0.5   0.1761
V39     V     0.8878   0.5   0.1761
V40     V     0.0   0.6122   0.3239
V41     V     0.0   0.1761   0.3878
V42     V     0.0   0.1761   0.6122
V43     V     0.8878   0.3239   0.5
V44     V     0.1122   0.3239   0.5
V45     V     0.8239   0.0   0.1122
V46     V     0.8239   0.0   0.8878
V47     V     0.6761   0.1122   0.0
V48     V     0.6761   0.8878   0.0
V49     V     0.5   0.8239   0.1122
V50     V     0.5   0.8239   0.8878
V51     V     0.3878   0.6761   0.0
V52     V     0.6122   0.6761   0.0
V53     V     0.5   0.3878   0.1761
V54     V     0.3878   0.5   0.3239
V55     V     0.5   0.6122   0.1761
V56     V     0.6122   0.5   0.3239
V57     V     0.8239   0.3878   0.0
V58     V     0.8239   0.6122   0.0
V59     V     0.6761   0.5   0.8878
V60     V     0.6761   0.5   0.1122
V61     V     0.8239   0.5   0.6122
V62     V     0.8239   0.5   0.3878
V63     V     0.6761   0.6122   0.5
V64     V     0.6761   0.3878   0.5
V65     V     0.6122   0.1761   0.5
V66     V     0.5   0.3239   0.3878
V67     V     0.3878   0.1761   0.5
V68     V     0.5   0.3239   0.6122
V69     V     0.3239   0.0   0.3878
V70     V     0.1761   0.8878   0.5
V71     V     0.1761   0.1122   0.5
V72     V     0.3239   0.0   0.6122
V73     V     0.1122   0.0   0.3239
V74     V     0.0   0.1122   0.1761
V75     V     0.0   0.8878   0.1761
V76     V     0.8878   0.0   0.3239
V77     V     0.8239   0.8878   0.5
V78     V     0.8239   0.1122   0.5
V79     V     0.6761   0.0   0.3878
V80     V     0.6761   0.0   0.6122
V81     V     0.3878   0.0   0.8239
V82     V     0.6122   0.0   0.8239
V83     V     0.5   0.8878   0.6761
V84     V     0.5   0.1122   0.6761
V85     V     0.3878   0.0   0.1761
V86     V     0.5   0.1122   0.3239
V87     V     0.6122   0.0   0.1761
V88     V     0.5   0.8878   0.3239
V89     V     0.3239   0.3878   0.5
V90     V     0.1761   0.5   0.3878
V91     V     0.1761   0.5   0.6122
V92     V     0.3239   0.6122   0.5
V93     V     0.3878   0.8239   0.5
V94     V     0.6122   0.8239   0.5
V95     V     0.5   0.6761   0.3878
V96     V     0.5   0.6761   0.6122
loop_
_geom_bond_atom_site_label_1
_geom_bond_atom_site_label_2
_geom_bond_distance
_geom_bond_site_symmetry_2
_ccdc_geom_bond_type
V1     V22    10.082   .     S
V1     V5    10.082   .     S
V1     V2    10.233   1_455     S
V1     V75    9.957   .     S
V1     V18    9.957   1_554     S
V1     V6    9.957   1_565     S
V1     V7    9.957   1_564     S
V1     V4    9.888   1_554     S
V1     V3    9.888   .     S
V2     V58    10.082   .     S
V2     V48    10.082   .     S
V2     V1    10.233   1_655     S
V2     V75    9.957   1_655     S
V2     V18    9.957   1_654     S
V2     V45    9.957   1_565     S
V2     V46    9.957   1_564     S
V2     V4    9.888   1_654     S
V2     V3    9.888   1_655     S
V3     V75    10.082   .     S
V3     V40    10.082   .     S
V3     V4    10.233   1_554     S
V3     V22    9.957   .     S
V3     V58    9.957   1_455     S
V3     V38    9.957   .     S
V3     V39    9.957   1_455     S
V3     V2    9.888   1_455     S
V4     V18    10.082   .     S
V4     V28    10.082   .     S
V4     V3    10.233   1_556     S
V4     V22    9.957   1_556     S
V4     V58    9.957   1_456     S
V4     V26    9.957   1_455     S
V4     V25    9.957   .     S
V4     V1    9.888   1_556     S
V4     V2    9.888   1_456     S
V5     V51    10.082   .     S
V5     V8    10.233   1_565     S
V5     V85    9.957   1_565     S
V5     V81    9.957   1_564     S
V5     V50    9.957   1_554     S
V5     V49    9.957   .     S
V5     V6    9.888   1_565     S
V5     V7    9.888   1_564     S
V6     V85    10.082   .     S
V6     V73    10.082   .     S
V6     V7    10.233   1_554     S
V6     V15    9.957   .     S
V6     V1    9.957   1_545     S
V6     V74    9.957   .     S
V6     V75    9.957   1_545     S
V6     V8    9.888   .     S
V6     V5    9.888   1_545     S
V7     V81    10.082   .     S
V7     V19    10.082   .     S
V7     V6    10.233   1_556     S
V7     V15    9.957   1_556     S
V7     V1    9.957   1_546     S
V7     V18    9.957   1_545     S
V7     V17    9.957   .     S
V7     V8    9.888   1_556     S
V7     V5    9.888   1_546     S
V8     V15    10.082   .     S
V8     V10    10.082   .     S
V8     V5    10.233   1_545     S
V8     V85    9.957   .     S
V8     V81    9.957   1_554     S
V8     V11    9.957   .     S
V8     V12    9.957   1_554     S
V8     V7    9.888   1_554     S
V9     V47    10.082   .     S
V9     V57    10.082   .     S
V9     V10    10.233   .     S
V9     V53    9.957   .     S
V9     V29    9.957   1_554     S
V9     V60    9.957   .     S
V9     V59    9.957   1_554     S
V9     V11    9.888   .     S
V9     V12    9.888   1_554     S
V10     V21    10.082   .     S
V10     V53    9.957   .     S
V10     V29    9.957   1_554     S
V10     V24    9.957   1_554     S
V10     V23    9.957   .     S
V10     V11    9.888   .     S
V10     V12    9.888   1_554     S
V11     V53    10.082   .     S
V11     V86    10.082   .     S
V11     V12    10.233   1_554     S
V11     V47    9.957   .     S
V11     V85    9.957   .     S
V11     V87    9.957   .     S
V12     V29    10.082   .     S
V12     V84    10.082   .     S
V12     V11    10.233   1_556     S
V12     V47    9.957   1_556     S
V12     V8    9.957   1_556     S
V12     V82    9.957   .     S
V12     V81    9.957   .     S
V12     V9    9.888   1_556     S
V12     V10    9.888   1_556     S
V13     V74    10.082   .     S
V13     V37    10.082   .     S
V13     V14    10.233   1_554     S
V13     V21    9.957   .     S
V13     V57    9.957   1_455     S
V13     V38    9.957   .     S
V13     V39    9.957   1_455     S
V13     V15    9.888   .     S
V13     V16    9.888   1_455     S
V14     V17    10.082   .     S
V14     V27    10.082   .     S
V14     V13    10.233   1_556     S
V14     V21    9.957   1_556     S
V14     V57    9.957   1_456     S
V14     V26    9.957   1_455     S
V14     V25    9.957   .     S
V14     V15    9.888   1_556     S
V14     V16    9.888   1_456     S
V15     V21    10.082   .     S
V15     V16    10.233   1_455     S
V15     V7    9.957   1_554     S
V15     V74    9.957   .     S
V15     V17    9.957   1_554     S
V15     V14    9.888   1_554     S
V16     V57    10.082   .     S
V16     V47    10.082   .     S
V16     V15    10.233   1_655     S
V16     V74    9.957   1_655     S
V16     V17    9.957   1_654     S
V16     V45    9.957   .     S
V16     V46    9.957   1_554     S
V16     V13    9.888   1_655     S
V16     V14    9.888   1_654     S
V17     V42    10.082   .     S
V17     V18    10.233   1_545     S
V17     V15    9.957   1_556     S
V17     V16    9.957   1_456     S
V17     V46    9.957   1_455     S
V17     V19    9.888   .     S
V17     V20    9.888   1_455     S
V18     V34    10.082   .     S
V18     V17    10.233   1_565     S
V18     V1    9.957   1_556     S
V18     V2    9.957   1_456     S
V18     V7    9.957   1_565     S
V18     V46    9.957   1_465     S
V18     V19    9.888   1_565     S
V18     V20    9.888   1_465     S
V19     V72    10.082   .     S
V19     V20    10.233   1_455     S
V19     V42    9.957   .     S
V19     V34    9.957   1_545     S
V19     V71    9.957   .     S
V19     V70    9.957   1_545     S
V19     V18    9.888   1_545     S
V20     V46    10.082   .     S
V20     V80    10.082   .     S
V20     V19    10.233   1_655     S
V20     V42    9.957   1_655     S
V20     V34    9.957   1_645     S
V20     V77    9.957   1_545     S
V20     V78    9.957   .     S
V20     V17    9.888   1_655     S
V20     V18    9.888   1_645     S
V21     V22    10.233   .     S
V21     V14    9.957   1_554     S
V21     V38    9.957   .     S
V21     V25    9.957   1_554     S
V21     V23    9.888   .     S
V21     V24    9.888   1_554     S
V22     V51    10.082   .     S
V22     V4    9.957   1_554     S
V22     V38    9.957   .     S
V22     V25    9.957   1_554     S
V22     V23    9.888   .     S
V22     V24    9.888   1_554     S
V23     V38    10.082   .     S
V23     V54    10.082   .     S
V23     V24    10.233   1_554     S
V23     V51    9.957   .     S
V23     V53    9.957   .     S
V23     V55    9.957   .     S
V24     V25    10.082   .     S
V24     V31    10.082   .     S
V24     V23    10.233   1_556     S
V24     V51    9.957   1_556     S
V24     V10    9.957   1_556     S
V24     V30    9.957   .     S
V24     V29    9.957   .     S
V24     V22    9.888   1_556     S
V24     V21    9.888   1_556     S
V25     V91    10.082   .     S
V25     V26    10.233   1_455     S
V25     V21    9.957   1_556     S
V25     V22    9.957   1_556     S
V25     V28    9.888   .     S
V25     V27    9.888   .     S
V26     V61    10.082   .     S
V26     V59    10.082   .     S
V26     V25    10.233   1_655     S
V26     V14    9.957   1_655     S
V26     V4    9.957   1_655     S
V26     V57    9.957   1_556     S
V26     V58    9.957   1_556     S
V26     V28    9.888   1_655     S
V26     V27    9.888   1_655     S
V27     V42    10.082   .     S
V27     V28    10.233   .     S
V27     V91    9.957   .     S
V27     V61    9.957   1_455     S
V27     V44    9.957   .     S
V27     V43    9.957   1_455     S
V27     V26    9.888   1_455     S
V28     V34    10.082   .     S
V28     V91    9.957   .     S
V28     V61    9.957   1_455     S
V28     V35    9.957   .     S
V28     V36    9.957   1_455     S
V28     V26    9.888   1_455     S
V29     V68    10.082   .     S
V29     V30    10.233   .     S
V29     V10    9.957   1_556     S
V29     V9    9.957   1_556     S
V29     V59    9.957   .     S
V29     V31    9.888   .     S
V29     V32    9.888   .     S
V30     V96    10.082   .     S
V30     V50    10.082   .     S
V30     V59    9.957   .     S
V30     V52    9.957   1_556     S
V30     V51    9.957   1_556     S
V30     V31    9.888   .     S
V30     V32    9.888   .     S
V31     V91    10.082   .     S
V31     V32    10.233   .     S
V31     V96    9.957   .     S
V31     V68    9.957   .     S
V31     V89    9.957   .     S
V31     V92    9.957   .     S
V32     V59    10.082   .     S
V32     V61    10.082   .     S
V32     V96    9.957   .     S
V32     V68    9.957   .     S
V32     V64    9.957   .     S
V32     V63    9.957   .     S
V33     V40    10.082   .     S
V33     V75    10.082   .     S
V33     V34    10.233   .     S
V33     V70    9.957   .     S
V33     V77    9.957   1_455     S
V33     V76    9.957   1_465     S
V33     V73    9.957   1_565     S
V33     V35    9.888   .     S
V33     V36    9.888   1_455     S
V34     V19    9.957   1_565     S
V34     V20    9.957   1_465     S
V34     V70    9.957   .     S
V34     V77    9.957   1_455     S
V34     V35    9.888   .     S
V34     V36    9.888   1_455     S
V35     V70    10.082   .     S
V35     V92    10.082   .     S
V35     V36    10.233   1_455     S
V35     V40    9.957   .     S
V35     V90    9.957   .     S
V35     V91    9.957   .     S
V36     V77    10.082   .     S
V36     V63    10.082   .     S
V36     V35    10.233   1_655     S
V36     V40    9.957   1_655     S
V36     V28    9.957   1_655     S
V36     V61    9.957   .     S
V36     V62    9.957   .     S
V36     V34    9.888   1_655     S
V36     V33    9.888   1_655     S
V37     V41    10.082   .     S
V37     V40    10.233   .     S
V37     V90    9.957   .     S
V37     V62    9.957   1_455     S
V37     V43    9.957   1_455     S
V37     V44    9.957   .     S
V37     V38    9.888   .     S
V37     V39    9.888   1_455     S
V38     V90    10.082   .     S
V38     V39    10.233   1_455     S
V38     V40    9.888   .     S
V39     V62    10.082   .     S
V39     V60    10.082   .     S
V39     V38    10.233   1_655     S
V39     V13    9.957   1_655     S
V39     V3    9.957   1_655     S
V39     V57    9.957   .     S
V39     V58    9.957   .     S
V39     V37    9.888   1_655     S
V39     V40    9.888   1_655     S
V40     V36    9.957   1_455     S
V40     V90    9.957   .     S
V40     V62    9.957   1_455     S
V40     V39    9.888   1_455     S
V41     V74    10.082   .     S
V41     V42    10.233   .     S
V41     V71    9.957   .     S
V41     V78    9.957   1_455     S
V41     V73    9.957   .     S
V41     V76    9.957   1_455     S
V41     V43    9.888   1_455     S
V41     V44    9.888   .     S
V42     V20    9.957   1_455     S
V42     V71    9.957   .     S
V42     V78    9.957   1_455     S
V42     V43    9.888   1_455     S
V42     V44    9.888   .     S
V43     V78    10.082   .     S
V43     V64    10.082   .     S
V43     V44    10.233   1_655     S
V43     V37    9.957   1_655     S
V43     V27    9.957   1_655     S
V43     V61    9.957   .     S
V43     V62    9.957   .     S
V43     V41    9.888   1_655     S
V43     V42    9.888   1_655     S
V44     V71    10.082   .     S
V44     V89    10.082   .     S
V44     V43    10.233   1_455     S
V44     V91    9.957   .     S
V44     V90    9.957   .     S
V45     V87    10.082   .     S
V45     V76    10.082   .     S
V45     V46    10.233   1_554     S
V45     V2    9.957   1_545     S
V45     V74    9.957   1_655     S
V45     V75    9.957   1_645     S
V45     V47    9.888   .     S
V45     V48    9.888   1_545     S
V46     V82    10.082   .     S
V46     V45    10.233   1_556     S
V46     V17    9.957   1_655     S
V46     V18    9.957   1_645     S
V46     V16    9.957   1_556     S
V46     V2    9.957   1_546     S
V46     V47    9.888   1_556     S
V46     V48    9.888   1_546     S
V47     V48    10.233   1_545     S
V47     V12    9.957   1_554     S
V47     V82    9.957   1_554     S
V47     V87    9.957   .     S
V47     V46    9.888   1_554     S
V48     V52    10.082   .     S
V48     V47    10.233   1_565     S
V48     V82    9.957   1_564     S
V48     V87    9.957   1_565     S
V48     V50    9.957   1_554     S
V48     V49    9.957   .     S
V48     V45    9.888   1_565     S
V48     V46    9.888   1_564     S
V49     V55    10.082   .     S
V49     V88    10.082   .     S
V49     V50    10.233   1_554     S
V49     V85    9.957   1_565     S
V49     V87    9.957   1_565     S
V49     V51    9.888   .     S
V49     V52    9.888   .     S
V50     V83    10.082   .     S
V50     V49    10.233   1_556     S
V50     V5    9.957   1_556     S
V50     V48    9.957   1_556     S
V50     V82    9.957   1_565     S
V50     V81    9.957   1_565     S
V50     V52    9.888   1_556     S
V50     V51    9.888   1_556     S
V51     V52    10.233   .     S
V51     V24    9.957   1_554     S
V51     V30    9.957   1_554     S
V51     V55    9.957   .     S
V51     V50    9.888   1_554     S
V52     V58    10.082   .     S
V52     V30    9.957   1_554     S
V52     V55    9.957   .     S
V52     V60    9.957   .     S
V52     V59    9.957   1_554     S
V52     V50    9.888   1_554     S
V53     V66    10.082   .     S
V53     V55    10.233   .     S
V53     V60    9.957   .     S
V53     V56    9.888   .     S
V53     V54    9.888   .     S
V54     V90    10.082   .     S
V54     V56    10.233   .     S
V54     V95    9.957   .     S
V54     V66    9.957   .     S
V54     V92    9.957   .     S
V54     V89    9.957   .     S
V54     V55    9.888   .     S
V55     V95    10.082   .     S
V55     V60    9.957   .     S
V55     V56    9.888   .     S
V56     V60    10.082   .     S
V56     V62    10.082   .     S
V56     V95    9.957   .     S
V56     V66    9.957   .     S
V56     V64    9.957   .     S
V56     V63    9.957   .     S
V57     V58    10.233   .     S
V57     V13    9.957   1_655     S
V57     V14    9.957   1_654     S
V57     V26    9.957   1_554     S
V57     V60    9.888   .     S
V57     V59    9.888   1_554     S
V58     V4    9.957   1_654     S
V58     V3    9.957   1_655     S
V58     V26    9.957   1_554     S
V58     V59    9.888   1_554     S
V58     V60    9.888   .     S
V59     V60    10.233   1_556     S
V59     V9    9.957   1_556     S
V59     V52    9.957   1_556     S
V59     V57    9.888   1_556     S
V59     V58    9.888   1_556     S
V60     V59    10.233   1_554     S
V61     V62    10.233   .     S
V61     V28    9.957   1_655     S
V61     V27    9.957   1_655     S
V61     V64    9.888   .     S
V61     V63    9.888   .     S
V62     V37    9.957   1_655     S
V62     V40    9.957   1_655     S
V62     V63    9.888   .     S
V62     V64    9.888   .     S
V63     V94    10.082   .     S
V63     V64    10.233   .     S
V63     V96    9.957   .     S
V63     V95    9.957   .     S
V64     V65    10.082   .     S
V64     V66    9.957   .     S
V64     V68    9.957   .     S
V65     V78    10.082   .     S
V65     V67    10.233   .     S
V65     V86    9.957   .     S
V65     V84    9.957   .     S
V65     V80    9.957   .     S
V65     V79    9.957   .     S
V65     V66    9.888   .     S
V65     V68    9.888   .     S
V66     V86    10.082   .     S
V66     V68    10.233   .     S
V66     V89    9.957   .     S
V66     V67    9.888   .     S
V67     V89    10.082   .     S
V67     V71    10.082   .     S
V67     V86    9.957   .     S
V67     V84    9.957   .     S
V67     V72    9.957   .     S
V67     V69    9.957   .     S
V67     V68    9.888   .     S
V68     V84    10.082   .     S
V68     V89    9.957   .     S
V69     V73    10.082   .     S
V69     V85    10.082   .     S
V69     V72    10.233   .     S
V69     V93    9.957   1_545     S
V69     V86    9.957   .     S
V69     V88    9.957   1_545     S
V69     V71    9.888   .     S
V69     V70    9.888   1_545     S
V70     V93    10.082   .     S
V70     V71    10.233   1_565     S
V70     V73    9.957   1_565     S
V70     V19    9.957   1_565     S
V70     V72    9.888   1_565     S
V70     V69    9.888   1_565     S
V71     V70    10.233   1_545     S
V71     V73    9.957   .     S
V71     V72    9.888   .     S
V72     V81    10.082   .     S
V72     V93    9.957   1_545     S
V72     V83    9.957   1_545     S
V72     V84    9.957   .     S
V72     V70    9.888   1_545     S
V73     V76    10.233   1_455     S
V73     V70    9.957   1_545     S
V73     V33    9.957   1_545     S
V73     V74    9.888   .     S
V73     V75    9.888   1_545     S
V74     V75    10.233   1_545     S
V74     V16    9.957   1_455     S
V74     V45    9.957   1_455     S
V74     V76    9.888   1_455     S
V75     V74    10.233   1_565     S
V75     V2    9.957   1_455     S
V75     V6    9.957   1_565     S
V75     V45    9.957   1_465     S
V75     V73    9.888   1_565     S
V75     V76    9.888   1_465     S
V76     V79    10.082   .     S
V76     V73    10.233   1_655     S
V76     V41    9.957   1_655     S
V76     V33    9.957   1_645     S
V76     V77    9.957   1_545     S
V76     V78    9.957   .     S
V76     V74    9.888   1_655     S
V76     V75    9.888   1_645     S
V77     V94    10.082   .     S
V77     V78    10.233   1_565     S
V77     V34    9.957   1_655     S
V77     V33    9.957   1_655     S
V77     V20    9.957   1_565     S
V77     V76    9.957   1_565     S
V77     V80    9.888   1_565     S
V77     V79    9.888   1_565     S
V78     V77    10.233   1_545     S
V78     V41    9.957   1_655     S
V78     V42    9.957   1_655     S
V78     V79    9.888   .     S
V78     V80    9.888   .     S
V79     V87    10.082   .     S
V79     V80    10.233   .     S
V79     V94    9.957   1_545     S
V79     V88    9.957   1_545     S
V79     V86    9.957   .     S
V79     V77    9.888   1_545     S
V80     V82    10.082   .     S
V80     V94    9.957   1_545     S
V80     V83    9.957   1_545     S
V80     V84    9.957   .     S
V80     V77    9.888   1_545     S
V81     V82    10.233   .     S
V81     V8    9.957   1_556     S
V81     V5    9.957   1_546     S
V81     V50    9.957   1_545     S
V81     V84    9.888   .     S
V81     V83    9.888   1_545     S
V82     V48    9.957   1_546     S
V82     V47    9.957   1_556     S
V82     V50    9.957   1_545     S
V82     V84    9.888   .     S
V82     V83    9.888   1_545     S
V83     V96    10.082   .     S
V83     V84    10.233   1_565     S
V83     V72    9.957   1_565     S
V83     V80    9.957   1_565     S
V83     V94    9.957   .     S
V83     V93    9.957   .     S
V83     V82    9.888   1_565     S
V83     V81    9.888   1_565     S
V84     V83    10.233   1_545     S
V85     V87    10.233   .     S
V85     V5    9.957   1_545     S
V85     V49    9.957   1_545     S
V85     V86    9.888   .     S
V85     V88    9.888   1_545     S
V86     V88    10.233   1_545     S
V86     V87    9.888   .     S
V87     V48    9.957   1_545     S
V87     V49    9.957   1_545     S
V87     V88    9.888   1_545     S
V88     V95    10.082   .     S
V88     V86    10.233   1_565     S
V88     V79    9.957   1_565     S
V88     V69    9.957   1_565     S
V88     V94    9.957   .     S
V88     V93    9.957   .     S
V88     V85    9.888   1_565     S
V88     V87    9.888   1_565     S
V89     V92    10.233   .     S
V89     V90    9.888   .     S
V89     V91    9.888   .     S
V90     V91    10.233   .     S
V90     V92    9.888   .     S
V91     V92    9.888   .     S
V92     V93    10.082   .     S
V92     V96    9.957   .     S
V92     V95    9.957   .     S
V93     V94    10.233   .     S
V93     V69    9.957   1_565     S
V93     V72    9.957   1_565     S
V93     V96    9.888   .     S
V93     V95    9.888   .     S
V94     V80    9.957   1_565     S
V94     V79    9.957   1_565     S
V94     V96    9.888   .     S
V94     V95    9.888   .     S
V95     V96    10.233   .     S
