data_nha
_audit_creation_date              2020-02-02
_audit_creation_method            'Pymatgen'
_symmetry_space_group_name_H-M    'P1'
_symmetry_Int_Tables_number       1
loop_
_symmetry_equiv_pos_as_xyz
  x,y,z
_cell_length_a                    36.6593
_cell_length_b                    36.6593
_cell_length_c                    36.6593
_cell_angle_alpha                 90.0
_cell_angle_beta                 90.0
_cell_angle_gamma                 90.0
loop_
_atom_site_label
_atom_site_type_symbol
_atom_site_fract_x
_atom_site_fract_y
_atom_site_fract_z
V1     V     0.1966   0.8034   0.5
V2     V     0.8034   0.1966   0.5
V3     V     0.8034   0.8034   0.5
V4     V     0.5   0.1966   0.1966
V5     V     0.8034   0.5   0.1966
V6     V     0.5   0.8034   0.1966
V7     V     0.1966   0.5   0.1966
V8     V     0.1966   0.5   0.8034
V9     V     0.5   0.8034   0.8034
V10     V     0.8034   0.5   0.8034
V11     V     0.5   0.1966   0.8034
V12     V     0.1966   0.1966   0.5
Er13     Er     0.2977   0.2977   0.7023
Er14     Er     0.2977   0.2977   0.2977
Er15     Er     0.7023   0.2977   0.7023
Er16     Er     0.7023   0.7023   0.7023
Er17     Er     0.2977   0.7023   0.7023
Er18     Er     0.2977   0.7023   0.2977
Er19     Er     0.7023   0.7023   0.2977
Er20     Er     0.7023   0.2977   0.2977
V21     V     0.6966   0.0   0.6966
Er22     Er     0.7977   0.2023   0.7977
V23     V     0.0   0.3034   0.6966
V24     V     0.3034   0.0   0.6966
Er25     Er     0.2023   0.2023   0.7977
V26     V     0.0   0.6966   0.6966
Er27     Er     0.2023   0.7977   0.7977
V28     V     0.3034   0.6966   0.0
V29     V     0.0   0.6966   0.3034
Er30     Er     0.2023   0.7977   0.2023
V31     V     0.6966   0.6966   0.0
Er32     Er     0.7977   0.7977   0.2023
V33     V     0.3034   0.3034   0.0
V34     V     0.3034   0.0   0.3034
V35     V     0.0   0.3034   0.3034
Er36     Er     0.2023   0.2023   0.2023
V37     V     0.6966   0.3034   0.0
V38     V     0.6966   0.0   0.3034
Er39     Er     0.7977   0.2023   0.2023
Er40     Er     0.7977   0.7977   0.7977
loop_
_geom_bond_atom_site_label_1
_geom_bond_atom_site_label_2
_geom_bond_distance
_geom_bond_site_symmetry_2
_ccdc_geom_bond_type
V1     Er18    9.081   .     S
V1     Er17    9.081   .     S
V1     V34    10.919   1_565     S
V1     V26    10.919   .     S
V1     V24    10.919   1_565     S
V1     V29    10.919   .     S
V2     Er20    9.081   .     S
V2     Er15    9.081   .     S
V2     V35    10.919   1_655     S
V2     V23    10.919   1_655     S
V2     V21    10.919   .     S
V2     V38    10.919   .     S
V3     Er16    9.081   .     S
V3     Er19    9.081   .     S
V3     V29    10.919   1_655     S
V3     V38    10.919   1_565     S
V3     V21    10.919   1_565     S
V3     V26    10.919   1_655     S
V4     Er20    9.081   .     S
V4     Er14    9.081   .     S
V4     V37    10.919   .     S
V4     V38    10.919   .     S
V4     V34    10.919   .     S
V4     V33    10.919   .     S
V5     Er19    9.081   .     S
V5     Er20    9.081   .     S
V5     V35    10.919   1_655     S
V5     V29    10.919   1_655     S
V5     V31    10.919   .     S
V5     V37    10.919   .     S
V6     Er18    9.081   .     S
V6     Er19    9.081   .     S
V6     V34    10.919   1_565     S
V6     V38    10.919   1_565     S
V6     V31    10.919   .     S
V6     V28    10.919   .     S
V7     Er14    9.081   .     S
V7     Er18    9.081   .     S
V7     V29    10.919   .     S
V7     V28    10.919   .     S
V7     V33    10.919   .     S
V7     V35    10.919   .     S
V8     Er17    9.081   .     S
V8     Er13    9.081   .     S
V8     V33    10.919   1_556     S
V8     V28    10.919   1_556     S
V8     V26    10.919   .     S
V8     V23    10.919   .     S
V9     Er16    9.081   .     S
V9     Er17    9.081   .     S
V9     V24    10.919   1_565     S
V9     V28    10.919   1_556     S
V9     V21    10.919   1_565     S
V9     V31    10.919   1_556     S
V10     Er15    9.081   .     S
V10     Er16    9.081   .     S
V10     V37    10.919   1_556     S
V10     V23    10.919   1_655     S
V10     V26    10.919   1_655     S
V10     V31    10.919   1_556     S
V11     Er13    9.081   .     S
V11     Er15    9.081   .     S
V11     V33    10.919   1_556     S
V11     V21    10.919   .     S
V11     V37    10.919   1_556     S
V11     V24    10.919   .     S
V12     Er14    9.081   .     S
V12     Er13    9.081   .     S
V12     V24    10.919   .     S
V12     V23    10.919   .     S
V12     V35    10.919   .     S
V12     V34    10.919   .     S
V21     Er40    9.081   1_545     S
V21     Er22    9.081   .     S
V21     V3    10.919   1_545     S
V21     V9    10.919   1_545     S
Er22     V23    9.081   1_655     S
Er22     V37    9.081   1_556     S
V23     Er22    9.081   1_455     S
V23     Er25    9.081   .     S
V23     V10    10.919   1_455     S
V23     V2    10.919   1_455     S
V24     Er27    9.081   1_545     S
V24     Er25    9.081   .     S
V24     V9    10.919   1_545     S
V24     V1    10.919   1_545     S
Er25     V33    9.081   1_556     S
V26     Er40    9.081   1_455     S
V26     Er27    9.081   .     S
V26     V10    10.919   1_455     S
V26     V3    10.919   1_455     S
Er27     V24    9.081   1_565     S
Er27     V28    9.081   1_556     S
V28     Er27    9.081   1_554     S
V28     Er30    9.081   .     S
V28     V9    10.919   1_554     S
V28     V8    10.919   1_554     S
V29     Er32    9.081   1_455     S
V29     Er30    9.081   .     S
V29     V3    10.919   1_455     S
V29     V5    10.919   1_455     S
Er30     V34    9.081   1_565     S
V31     Er40    9.081   1_554     S
V31     Er32    9.081   .     S
V31     V9    10.919   1_554     S
V31     V10    10.919   1_554     S
Er32     V29    9.081   1_655     S
Er32     V38    9.081   1_565     S
V33     Er25    9.081   1_554     S
V33     Er36    9.081   .     S
V33     V11    10.919   1_554     S
V33     V8    10.919   1_554     S
V34     Er30    9.081   1_545     S
V34     Er36    9.081   .     S
V34     V1    10.919   1_545     S
V34     V6    10.919   1_545     S
V35     Er39    9.081   1_455     S
V35     Er36    9.081   .     S
V35     V5    10.919   1_455     S
V35     V2    10.919   1_455     S
V37     Er22    9.081   1_554     S
V37     Er39    9.081   .     S
V37     V10    10.919   1_554     S
V37     V11    10.919   1_554     S
V38     Er32    9.081   1_545     S
V38     Er39    9.081   .     S
V38     V3    10.919   1_545     S
V38     V6    10.919   1_545     S
Er39     V35    9.081   1_655     S
Er40     V21    9.081   1_565     S
Er40     V26    9.081   1_655     S
Er40     V31    9.081   1_556     S
