data_nkua
_audit_creation_date              2020-02-02
_audit_creation_method            'Pymatgen'
_symmetry_space_group_name_H-M    'P1'
_symmetry_Int_Tables_number       1
loop_
_symmetry_equiv_pos_as_xyz
  x,y,z
_cell_length_a                    129.1386
_cell_length_b                    129.1386
_cell_length_c                    129.1386
_cell_angle_alpha                 90.0
_cell_angle_beta                 90.0
_cell_angle_gamma                 90.0
loop_
_atom_site_label
_atom_site_type_symbol
_atom_site_fract_x
_atom_site_fract_y
_atom_site_fract_z
Er1     Er     0.3533   0.082   0.2974
Er2     Er     0.2974   0.3533   0.082
Er3     Er     0.082   0.2974   0.3533
Er4     Er     0.1467   0.418   0.2026
Er5     Er     0.2026   0.1467   0.418
Er6     Er     0.418   0.2026   0.1467
V7     V     0.3033   0.13   0.3318
Ti8     Ti     0.2762   0.1268   0.4043
V9     V     0.13   0.3318   0.3033
Ti10     Ti     0.1268   0.4043   0.2762
V11     V     0.3318   0.3033   0.13
Ti12     Ti     0.4043   0.2762   0.1268
V13     V     0.1967   0.37   0.1682
Ti14     Ti     0.2238   0.3732   0.0957
V15     V     0.37   0.1682   0.1967
Ti16     Ti     0.3732   0.0957   0.2238
Ce17     Ce     0.1887   0.2895   0.2756
Ce18     Ce     0.2244   0.3113   0.2104
Ce19     Ce     0.2756   0.1887   0.2895
Ce20     Ce     0.2104   0.2244   0.3113
Ce21     Ce     0.2895   0.2756   0.1887
Ce22     Ce     0.3113   0.2104   0.2244
V23     V     0.1682   0.1967   0.37
Ti24     Ti     0.0957   0.2238   0.3732
Er25     Er     0.3967   0.4526   0.668
Er26     Er     0.4526   0.668   0.3967
Er27     Er     0.6033   0.5474   0.332
Er28     Er     0.5474   0.332   0.6033
Er29     Er     0.668   0.3967   0.4526
Er30     Er     0.332   0.6033   0.5474
V31     V     0.62   0.4467   0.4182
Ti32     Ti     0.6232   0.4738   0.3457
V33     V     0.4182   0.62   0.4467
Ti34     Ti     0.3457   0.6232   0.4738
V35     V     0.4467   0.4182   0.62
Ti36     Ti     0.4738   0.3457   0.6232
V37     V     0.38   0.5533   0.5818
Ti38     Ti     0.3768   0.5262   0.6543
V39     V     0.5818   0.38   0.5533
Ti40     Ti     0.6543   0.3768   0.5262
Ce41     Ce     0.4387   0.5256   0.5396
Ce42     Ce     0.4604   0.5613   0.4744
Ce43     Ce     0.5396   0.4387   0.5256
Ce44     Ce     0.4744   0.4604   0.5613
Ce45     Ce     0.5256   0.5396   0.4387
Ce46     Ce     0.5613   0.4744   0.4604
V47     V     0.5533   0.5818   0.38
Ti48     Ti     0.5262   0.6543   0.3768
Er49     Er     0.6033   0.4526   0.168
Er50     Er     0.4526   0.332   0.1033
Er51     Er     0.5474   0.668   0.8967
Er52     Er     0.668   0.6033   0.0474
Er53     Er     0.3967   0.5474   0.832
Er54     Er     0.332   0.3967   0.9526
V55     V     0.62   0.5533   0.0818
Ti56     Ti     0.6232   0.5262   0.1543
V57     V     0.4467   0.5818   0.88
Ti58     Ti     0.4738   0.6543   0.8768
V59     V     0.4182   0.38   0.0533
Ti60     Ti     0.3457   0.3768   0.0262
V61     V     0.5533   0.4182   0.12
Ti62     Ti     0.5262   0.3457   0.1232
V63     V     0.38   0.4467   0.9182
Ti64     Ti     0.3768   0.4738   0.8457
Ce65     Ce     0.4744   0.5396   0.9387
Ce66     Ce     0.5396   0.5613   0.9744
Ce67     Ce     0.4387   0.4744   0.9604
Ce68     Ce     0.4604   0.4387   0.0256
Ce69     Ce     0.5256   0.4604   0.0613
Ce70     Ce     0.5613   0.5256   0.0395
V71     V     0.5818   0.62   0.9467
Ti72     Ti     0.6543   0.6232   0.9738
Er73     Er     0.6467   0.418   0.2974
Er74     Er     0.918   0.2026   0.3533
Er75     Er     0.8533   0.082   0.2026
Er76     Er     0.7974   0.3533   0.418
Er77     Er     0.7026   0.1467   0.082
Er78     Er     0.582   0.2974   0.1467
V79     V     0.63   0.3318   0.1967
Ti80     Ti     0.6268   0.4043   0.2238
V81     V     0.6682   0.1967   0.13
Ti82     Ti     0.5957   0.2238   0.1268
V83     V     0.6967   0.37   0.3318
Ti84     Ti     0.7238   0.3732   0.4043
V85     V     0.8033   0.13   0.1682
Ti86     Ti     0.7762   0.1268   0.0957
V87     V     0.87   0.1682   0.3033
Ti88     Ti     0.8732   0.0957   0.2762
Ce89     Ce     0.7104   0.2244   0.1887
Ce90     Ce     0.7244   0.3113   0.2895
Ce91     Ce     0.6887   0.2895   0.2244
Ce92     Ce     0.7896   0.2756   0.3113
Ce93     Ce     0.7756   0.1887   0.2105
Ce94     Ce     0.8113   0.2104   0.2756
V95     V     0.8318   0.3033   0.37
Ti96     Ti     0.9043   0.2762   0.3732
Er97     Er     0.4526   0.832   0.8967
Er98     Er     0.332   0.8967   0.0474
Er99     Er     0.3967   0.0474   0.168
Er100     Er     0.5474   0.168   0.1033
Er101     Er     0.668   0.1033   0.9526
Er102     Er     0.6033   0.9526   0.832
V103     V     0.4182   0.88   0.9467
Ti104     Ti     0.3457   0.8768   0.9738
V105     V     0.38   0.9467   0.0818
Ti106     Ti     0.3768   0.9738   0.1543
V107     V     0.5818   0.12   0.0533
Ti108     Ti     0.6543   0.1232   0.0262
V109     V     0.5533   0.9182   0.88
Ti110     Ti     0.5262   0.8457   0.8768
V111     V     0.62   0.0533   0.9182
Ti112     Ti     0.6232   0.0262   0.8457
Ce113     Ce     0.5396   0.0613   0.0256
Ce114     Ce     0.4387   0.9744   0.0396
Ce115     Ce     0.4744   0.0396   0.0613
Ce116     Ce     0.5613   0.0256   0.9604
Ce117     Ce     0.4604   0.9387   0.9744
Ce118     Ce     0.5256   0.9604   0.9387
V119     V     0.4467   0.0818   0.12
Ti120     Ti     0.4738   0.1543   0.1232
Er121     Er     0.8967   0.4526   0.832
Er122     Er     0.0474   0.332   0.8967
Er123     Er     0.168   0.3967   0.0474
Er124     Er     0.9526   0.668   0.1033
Er125     Er     0.1033   0.5474   0.168
Er126     Er     0.832   0.6033   0.9526
V127     V     0.9467   0.4182   0.88
Ti128     Ti     0.9738   0.3457   0.8768
V129     V     0.0533   0.5818   0.12
Ti130     Ti     0.0262   0.6543   0.1232
V131     V     0.0818   0.38   0.9467
Ti132     Ti     0.1543   0.3768   0.9738
V133     V     0.88   0.5533   0.9182
Ti134     Ti     0.8768   0.5262   0.8457
V135     V     0.9182   0.62   0.0533
Ti136     Ti     0.8457   0.6232   0.0262
Ce137     Ce     0.0256   0.5396   0.0613
Ce138     Ce     0.0396   0.4387   0.9744
Ce139     Ce     0.0613   0.4744   0.0396
Ce140     Ce     0.9604   0.5613   0.0256
Ce141     Ce     0.9744   0.4604   0.9387
Ce142     Ce     0.9387   0.5256   0.9604
V143     V     0.12   0.4467   0.0818
Ti144     Ti     0.1232   0.4738   0.1543
Er145     Er     0.6467   0.918   0.7026
Er146     Er     0.7026   0.6467   0.918
Er147     Er     0.918   0.7026   0.6467
Er148     Er     0.8533   0.582   0.7974
Er149     Er     0.7974   0.8533   0.582
Er150     Er     0.582   0.7974   0.8533
V151     V     0.8033   0.63   0.8318
Ti152     Ti     0.7762   0.6268   0.9043
V153     V     0.63   0.8318   0.8033
Ti154     Ti     0.6268   0.9043   0.7762
V155     V     0.8318   0.8033   0.63
Ti156     Ti     0.9043   0.7762   0.6268
V157     V     0.6967   0.87   0.6682
Ti158     Ti     0.7238   0.8732   0.5957
V159     V     0.87   0.6682   0.6967
Ti160     Ti     0.8732   0.5957   0.7238
Ce161     Ce     0.7104   0.7244   0.8113
Ce162     Ce     0.7756   0.6887   0.7896
Ce163     Ce     0.7244   0.8113   0.7104
Ce164     Ce     0.6887   0.7896   0.7756
Ce165     Ce     0.8113   0.7104   0.7244
Ce166     Ce     0.7896   0.7756   0.6887
V167     V     0.6682   0.6967   0.87
Ti168     Ti     0.5957   0.7238   0.8732
Er169     Er     0.832   0.8967   0.4526
Er170     Er     0.8967   0.0474   0.332
Er171     Er     0.0474   0.168   0.3967
Er172     Er     0.168   0.1033   0.5474
Er173     Er     0.1033   0.9526   0.668
Er174     Er     0.9526   0.832   0.6033
V175     V     0.88   0.9467   0.4182
Ti176     Ti     0.8768   0.9738   0.3457
V177     V     0.12   0.0533   0.5818
Ti178     Ti     0.1232   0.0262   0.6543
V179     V     0.9467   0.0818   0.38
Ti180     Ti     0.9738   0.1543   0.3768
V181     V     0.0533   0.9182   0.62
Ti182     Ti     0.0262   0.8457   0.6232
V183     V     0.9182   0.88   0.5533
Ti184     Ti     0.8457   0.8768   0.5262
Ce185     Ce     0.0256   0.9604   0.5613
Ce186     Ce     0.9387   0.9744   0.4604
Ce187     Ce     0.9604   0.9387   0.5256
Ce188     Ce     0.0613   0.0256   0.5396
Ce189     Ce     0.9744   0.0395   0.4387
Ce190     Ce     0.0396   0.0613   0.4744
V191     V     0.0818   0.12   0.4467
Ti192     Ti     0.1543   0.1232   0.4738
Er193     Er     0.418   0.2974   0.6467
Er194     Er     0.082   0.2026   0.8533
Er195     Er     0.2026   0.3533   0.918
Er196     Er     0.2974   0.1467   0.582
Er197     Er     0.3533   0.418   0.7974
Er198     Er     0.1467   0.082   0.7026
V199     V     0.1967   0.13   0.6682
Ti200     Ti     0.2238   0.1268   0.5957
V201     V     0.3318   0.1967   0.63
Ti202     Ti     0.4043   0.2238   0.6268
V203     V     0.1682   0.3033   0.87
Ti204     Ti     0.0957   0.2762   0.8732
V205     V     0.13   0.1682   0.8033
Ti206     Ti     0.1268   0.0957   0.7762
V207     V     0.37   0.3318   0.6967
Ti208     Ti     0.3732   0.4043   0.7238
Ce209     Ce     0.2756   0.3113   0.7896
Ce210     Ce     0.2104   0.2756   0.8113
Ce211     Ce     0.1887   0.2104   0.7756
Ce212     Ce     0.2244   0.1887   0.7104
Ce213     Ce     0.2895   0.2244   0.6887
Ce214     Ce     0.3113   0.2895   0.7244
V215     V     0.3033   0.37   0.8318
Ti216     Ti     0.2762   0.3732   0.9043
Er217     Er     0.582   0.7026   0.3533
Er218     Er     0.6467   0.582   0.2026
Er219     Er     0.918   0.7974   0.1467
Er220     Er     0.7026   0.8533   0.418
Er221     Er     0.7974   0.6467   0.082
Er222     Er     0.8533   0.918   0.2974
V223     V     0.8033   0.87   0.3318
Ti224     Ti     0.7762   0.8732   0.4043
V225     V     0.87   0.8318   0.1967
Ti226     Ti     0.8732   0.9043   0.2238
V227     V     0.6682   0.8033   0.37
Ti228     Ti     0.5957   0.7762   0.3732
V229     V     0.6967   0.63   0.1682
Ti230     Ti     0.7238   0.6268   0.0957
V231     V     0.63   0.6682   0.3033
Ti232     Ti     0.6268   0.5957   0.2762
Ce233     Ce     0.7896   0.7244   0.1887
Ce234     Ce     0.6887   0.7104   0.2756
Ce235     Ce     0.7244   0.6887   0.2104
Ce236     Ce     0.8113   0.7896   0.2244
Ce237     Ce     0.7104   0.7756   0.3113
Ce238     Ce     0.7756   0.8113   0.2895
V239     V     0.8318   0.6967   0.13
Ti240     Ti     0.9043   0.7238   0.1268
Er241     Er     0.332   0.1033   0.4526
Er242     Er     0.4526   0.168   0.6033
Er243     Er     0.668   0.8967   0.5474
Er244     Er     0.6033   0.0474   0.668
Er245     Er     0.5474   0.832   0.3967
Er246     Er     0.3967   0.9526   0.332
V247     V     0.5533   0.0818   0.62
Ti248     Ti     0.5262   0.1543   0.6232
V249     V     0.38   0.0533   0.4182
Ti250     Ti     0.3768   0.0262   0.3457
V251     V     0.4467   0.9182   0.38
Ti252     Ti     0.4738   0.8457   0.3768
V253     V     0.4182   0.12   0.5533
Ti254     Ti     0.3457   0.1232   0.5262
V255     V     0.5818   0.88   0.4467
Ti256     Ti     0.6543   0.8768   0.4738
Ce257     Ce     0.5613   0.9744   0.5396
Ce258     Ce     0.5396   0.9387   0.4744
Ce259     Ce     0.4744   0.9604   0.4387
Ce260     Ce     0.4387   0.0256   0.4604
Ce261     Ce     0.4604   0.0613   0.5256
Ce262     Ce     0.5256   0.0395   0.5613
V263     V     0.62   0.9467   0.5818
Ti264     Ti     0.6232   0.9738   0.6543
Er265     Er     0.2974   0.8533   0.918
Er266     Er     0.2026   0.6467   0.582
Er267     Er     0.418   0.7026   0.8533
Er268     Er     0.082   0.7974   0.6467
Er269     Er     0.3533   0.582   0.7026
Er270     Er     0.1467   0.918   0.7974
V271     V     0.3318   0.8033   0.87
Ti272     Ti     0.4043   0.7762   0.8732
V273     V     0.1967   0.87   0.8318
Ti274     Ti     0.2238   0.8732   0.9043
V275     V     0.13   0.8318   0.6967
Ti276     Ti     0.1268   0.9043   0.7238
V277     V     0.1682   0.6967   0.63
Ti278     Ti     0.0957   0.7238   0.6268
V279     V     0.3033   0.63   0.6682
Ti280     Ti     0.2762   0.6268   0.5957
Ce281     Ce     0.1887   0.7896   0.7244
Ce282     Ce     0.2756   0.6887   0.7104
Ce283     Ce     0.2104   0.7244   0.6887
Ce284     Ce     0.2244   0.8113   0.7896
Ce285     Ce     0.3113   0.7104   0.7756
Ce286     Ce     0.2895   0.7756   0.8113
V287     V     0.37   0.6682   0.8033
Ti288     Ti     0.3732   0.5957   0.7762
Er289     Er     0.1033   0.0474   0.832
Er290     Er     0.0474   0.832   0.1033
Er291     Er     0.8967   0.9526   0.168
Er292     Er     0.9526   0.168   0.8967
Er293     Er     0.168   0.8967   0.9526
Er294     Er     0.832   0.1033   0.0474
V295     V     0.88   0.0533   0.0818
Ti296     Ti     0.8768   0.0262   0.1543
V297     V     0.0818   0.88   0.0533
Ti298     Ti     0.1543   0.8768   0.0262
V299     V     0.0533   0.0818   0.88
Ti300     Ti     0.0262   0.1543   0.8768
V301     V     0.12   0.9467   0.9182
Ti302     Ti     0.1232   0.9738   0.8457
V303     V     0.9182   0.12   0.9467
Ti304     Ti     0.8457   0.1232   0.9738
Ce305     Ce     0.0613   0.9744   0.9604
Ce306     Ce     0.0256   0.0396   0.9387
Ce307     Ce     0.9744   0.9604   0.0613
Ce308     Ce     0.0396   0.9387   0.0256
Ce309     Ce     0.9604   0.0613   0.9744
Ce310     Ce     0.9387   0.0256   0.0396
V311     V     0.9467   0.9182   0.12
Ti312     Ti     0.9738   0.8457   0.1232
Er313     Er     0.2974   0.6467   0.418
Er314     Er     0.2026   0.8533   0.082
Er315     Er     0.3533   0.918   0.2026
Er316     Er     0.1467   0.582   0.2974
Er317     Er     0.082   0.7026   0.1467
Er318     Er     0.418   0.7974   0.3533
V319     V     0.1967   0.63   0.3318
Ti320     Ti     0.2238   0.6268   0.4043
V321     V     0.37   0.8318   0.3033
Ti322     Ti     0.3732   0.9043   0.2762
V323     V     0.1682   0.8033   0.13
Ti324     Ti     0.0957   0.7762   0.1268
V325     V     0.3318   0.6967   0.37
Ti326     Ti     0.4043   0.7238   0.3732
V327     V     0.3033   0.87   0.1682
Ti328     Ti     0.2762   0.8732   0.0957
Ce329     Ce     0.3113   0.7896   0.2756
Ce330     Ce     0.2756   0.8113   0.2104
Ce331     Ce     0.2895   0.7244   0.3113
Ce332     Ce     0.2244   0.6887   0.2895
Ce333     Ce     0.1887   0.7104   0.2244
Ce334     Ce     0.2104   0.7756   0.1887
V335     V     0.13   0.6682   0.1967
Ti336     Ti     0.1268   0.5957   0.2238
Er337     Er     0.7026   0.3533   0.582
Er338     Er     0.582   0.2026   0.6467
Er339     Er     0.7974   0.1467   0.918
Er340     Er     0.6467   0.082   0.7974
Er341     Er     0.8533   0.418   0.7026
Er342     Er     0.918   0.2974   0.8533
V343     V     0.63   0.1682   0.6967
Ti344     Ti     0.6268   0.0957   0.7238
V345     V     0.8318   0.1967   0.87
Ti346     Ti     0.9043   0.2238   0.8732
V347     V     0.87   0.3318   0.8033
Ti348     Ti     0.8732   0.4043   0.7762
V349     V     0.6967   0.13   0.8318
Ti350     Ti     0.7238   0.1268   0.9043
V351     V     0.6682   0.3033   0.63
Ti352     Ti     0.5957   0.2762   0.6268
Ce353     Ce     0.7896   0.2244   0.8113
Ce354     Ce     0.8113   0.2895   0.7756
Ce355     Ce     0.7756   0.3113   0.7104
Ce356     Ce     0.7244   0.1887   0.7896
Ce357     Ce     0.7104   0.2756   0.6887
Ce358     Ce     0.6887   0.2104   0.7244
V359     V     0.8033   0.37   0.6682
Ti360     Ti     0.7762   0.3732   0.5957
Er361     Er     0.168   0.6033   0.4526
Er362     Er     0.1033   0.4526   0.332
Er363     Er     0.8967   0.5474   0.668
Er364     Er     0.0474   0.668   0.6033
Er365     Er     0.832   0.3967   0.5474
Er366     Er     0.9526   0.332   0.3967
V367     V     0.0818   0.62   0.5533
Ti368     Ti     0.1543   0.6232   0.5262
V369     V     0.0533   0.4182   0.38
Ti370     Ti     0.0262   0.3457   0.3768
V371     V     0.9182   0.38   0.4467
Ti372     Ti     0.8457   0.3768   0.4738
V373     V     0.12   0.5533   0.4182
Ti374     Ti     0.1232   0.5262   0.3457
V375     V     0.88   0.4467   0.5818
Ti376     Ti     0.8768   0.4738   0.6543
Ce377     Ce     0.9744   0.5396   0.5613
Ce378     Ce     0.0256   0.4604   0.4387
Ce379     Ce     0.0613   0.5256   0.4604
Ce380     Ce     0.0396   0.5613   0.5256
Ce381     Ce     0.9387   0.4744   0.5396
Ce382     Ce     0.9604   0.4387   0.4744
V383     V     0.9467   0.5818   0.62
Ti384     Ti     0.9738   0.6543   0.6232
loop_
_geom_bond_atom_site_label_1
_geom_bond_atom_site_label_2
_geom_bond_distance
_geom_bond_site_symmetry_2
_ccdc_geom_bond_type
Er1     V7    10.0   .     S
Er1     Ti16    10.0   .     S
Er1     Ti250    10.002   .     S
Er2     V11    10.0   .     S
Er2     Ti14    10.0   .     S
Er2     Ti60    10.002   .     S
Er3     V9    10.0   .     S
Er3     Ti24    10.0   .     S
Er3     Ti370    10.002   .     S
Er4     V13    10.0   .     S
Er4     Ti10    10.0   .     S
Er4     Ti144    10.002   .     S
Er5     V23    10.0   .     S
Er5     Ti8    10.0   .     S
Er5     Ti192    10.002   .     S
Er6     V15    10.0   .     S
Er6     Ti12    10.0   .     S
Er6     Ti120    10.002   .     S
V7     Ce19    9.999   .     S
V7     Ti8    10.0   .     S
Ti8     Er241    10.002   .     S
V9     Ce17    9.999   .     S
V9     Ti10    10.0   .     S
Ti10     Er362    10.002   .     S
V11     Ce21    9.999   .     S
V11     Ti12    10.0   .     S
Ti12     Er50    10.002   .     S
V13     Ce18    9.999   .     S
V13     Ti14    10.0   .     S
Ti14     Er123    10.002   .     S
V15     Ce22    9.999   .     S
V15     Ti16    10.0   .     S
Ti16     Er99    10.002   .     S
Ce17     Ce20    9.998   .     S
Ce17     Ce18    9.998   .     S
Ce18     Ce21    9.998   .     S
Ce19     Ce22    9.998   .     S
Ce19     Ce20    9.998   .     S
Ce20     V23    9.999   .     S
Ce21     Ce22    9.998   .     S
V23     Ti24    10.0   .     S
Ti24     Er171    10.002   .     S
Er25     V35    10.0   .     S
Er25     Ti38    10.0   .     S
Er25     Ti208    10.002   .     S
Er26     V33    10.0   .     S
Er26     Ti48    10.0   .     S
Er26     Ti326    10.002   .     S
Er27     V47    10.0   .     S
Er27     Ti32    10.0   .     S
Er27     Ti232    10.002   .     S
Er28     V39    10.0   .     S
Er28     Ti36    10.0   .     S
Er28     Ti352    10.002   .     S
Er29     V31    10.0   .     S
Er29     Ti40    10.0   .     S
Er29     Ti84    10.002   .     S
Er30     V37    10.0   .     S
Er30     Ti34    10.0   .     S
Er30     Ti280    10.002   .     S
V31     Ce46    9.999   .     S
V31     Ti32    10.0   .     S
Ti32     Er73    10.002   .     S
V33     Ce42    9.999   .     S
V33     Ti34    10.0   .     S
Ti34     Er313    10.002   .     S
V35     Ce44    9.999   .     S
V35     Ti36    10.0   .     S
Ti36     Er193    10.002   .     S
V37     Ce41    9.999   .     S
V37     Ti38    10.0   .     S
Ti38     Er269    10.002   .     S
V39     Ce43    9.999   .     S
V39     Ti40    10.0   .     S
Ti40     Er337    10.002   .     S
Ce41     Ce42    9.998   .     S
Ce41     Ce44    9.998   .     S
Ce42     Ce45    9.998   .     S
Ce43     Ce44    9.998   .     S
Ce43     Ce46    9.998   .     S
Ce45     Ce46    9.998   .     S
Ce45     V47    9.999   .     S
V47     Ti48    10.0   .     S
Ti48     Er217    10.002   .     S
Er49     V61    10.0   .     S
Er49     Ti56    10.0   .     S
Er49     Ti80    10.002   .     S
Er50     V59    10.0   .     S
Er50     Ti62    10.0   .     S
Er51     V71    10.0   .     S
Er51     Ti58    10.0   .     S
Er51     Ti168    10.002   .     S
Er52     V55    10.0   .     S
Er52     Ti72    10.0   1_554     S
Er52     Ti230    10.002   .     S
Er53     V57    10.0   .     S
Er53     Ti64    10.0   .     S
Er53     Ti288    10.002   .     S
Er54     V63    10.0   .     S
Er54     Ti60    10.0   1_556     S
Er54     Ti216    10.002   .     S
V55     Ce70    9.999   .     S
V55     Ti56    10.0   .     S
Ti56     Er218    10.002   .     S
V57     Ce65    9.999   .     S
V57     Ti58    10.0   .     S
Ti58     Er267    10.002   .     S
V59     Ce68    9.999   .     S
V59     Ti60    10.0   .     S
Ti60     Er54    10.0   1_554     S
V61     Ce69    9.999   .     S
V61     Ti62    10.0   .     S
Ti62     Er78    10.002   .     S
V63     Ce67    9.999   .     S
V63     Ti64    10.0   .     S
Ti64     Er197    10.002   .     S
Ce65     Ce67    9.998   .     S
Ce65     Ce66    9.998   .     S
Ce66     Ce70    9.998   1_556     S
Ce66     V71    9.999   .     S
Ce67     Ce68    9.998   1_556     S
Ce68     Ce67    9.998   1_554     S
Ce68     Ce69    9.998   .     S
Ce69     Ce70    9.998   .     S
Ce70     Ce66    9.998   1_554     S
V71     Ti72    10.0   .     S
Ti72     Er52    10.0   1_556     S
Ti72     Er146    10.002   .     S
Er73     V83    10.0   .     S
Er73     Ti80    10.0   .     S
Er74     V87    10.0   .     S
Er74     Ti96    10.0   .     S
Er74     Ti180    10.002   .     S
Er75     V85    10.0   .     S
Er75     Ti88    10.0   .     S
Er75     Ti296    10.002   .     S
Er76     V95    10.0   .     S
Er76     Ti84    10.0   .     S
Er76     Ti372    10.002   .     S
Er77     V81    10.0   .     S
Er77     Ti86    10.0   .     S
Er77     Ti108    10.002   .     S
Er78     V79    10.0   .     S
Er78     Ti82    10.0   .     S
V79     Ce91    9.999   .     S
V79     Ti80    10.0   .     S
V81     Ce89    9.999   .     S
V81     Ti82    10.0   .     S
Ti82     Er100    10.002   .     S
V83     Ce90    9.999   .     S
V83     Ti84    10.0   .     S
V85     Ce93    9.999   .     S
V85     Ti86    10.0   .     S
Ti86     Er294    10.002   .     S
V87     Ce94    9.999   .     S
V87     Ti88    10.0   .     S
Ti88     Er170    10.002   .     S
Ce89     Ce93    9.998   .     S
Ce89     Ce91    9.998   .     S
Ce90     Ce91    9.998   .     S
Ce90     Ce92    9.998   .     S
Ce92     Ce94    9.998   .     S
Ce92     V95    9.999   .     S
Ce93     Ce94    9.998   .     S
V95     Ti96    10.0   .     S
Ti96     Er366    10.002   .     S
Er97     V103    10.0   .     S
Er97     Ti110    10.0   .     S
Er97     Ti272    10.002   .     S
Er98     V105    10.0   .     S
Er98     Ti104    10.0   1_554     S
Er98     Ti328    10.002   .     S
Er99     V119    10.0   .     S
Er99     Ti106    10.0   1_545     S
Er100     V107    10.0   .     S
Er100     Ti120    10.0   .     S
Er101     V111    10.0   .     S
Er101     Ti108    10.0   1_556     S
Er101     Ti350    10.002   .     S
Er102     V109    10.0   .     S
Er102     Ti112    10.0   1_565     S
Er102     Ti154    10.002   .     S
V103     Ce117    9.999   .     S
V103     Ti104    10.0   .     S
Ti104     Er98    10.0   1_556     S
Ti104     Er265    10.002   .     S
V105     Ce114    9.999   .     S
V105     Ti106    10.0   .     S
Ti106     Er99    10.0   1_565     S
Ti106     Er315    10.002   .     S
V107     Ce113    9.999   .     S
V107     Ti108    10.0   .     S
Ti108     Er101    10.0   1_554     S
V109     Ce118    9.999   .     S
V109     Ti110    10.0   .     S
Ti110     Er150    10.002   .     S
V111     Ce116    9.999   .     S
V111     Ti112    10.0   .     S
Ti112     Er102    10.0   1_545     S
Ti112     Er340    10.002   .     S
Ce113     Ce115    9.998   .     S
Ce113     Ce116    9.998   1_554     S
Ce114     Ce117    9.998   1_554     S
Ce114     Ce115    9.998   1_565     S
Ce115     Ce114    9.998   1_545     S
Ce115     V119    9.999   .     S
Ce116     Ce113    9.998   1_556     S
Ce116     Ce118    9.998   1_545     S
Ce117     Ce114    9.998   1_556     S
Ce117     Ce118    9.998   .     S
Ce118     Ce116    9.998   1_565     S
V119     Ti120    10.0   .     S
Er121     V127    10.0   .     S
Er121     Ti134    10.0   .     S
Er121     Ti348    10.002   .     S
Er122     V131    10.0   .     S
Er122     Ti128    10.0   1_455     S
Er122     Ti204    10.002   .     S
Er123     V143    10.0   .     S
Er123     Ti132    10.0   1_554     S
Er124     V135    10.0   .     S
Er124     Ti130    10.0   1_655     S
Er124     Ti240    10.002   .     S
Er125     V129    10.0   .     S
Er125     Ti144    10.0   .     S
Er125     Ti336    10.002   .     S
Er126     V133    10.0   .     S
Er126     Ti136    10.0   1_556     S
Er126     Ti152    10.002   .     S
V127     Ce141    9.999   .     S
V127     Ti128    10.0   .     S
Ti128     Er122    10.0   1_655     S
Ti128     Er342    10.002   .     S
V129     Ce137    9.999   .     S
V129     Ti130    10.0   .     S
Ti130     Er124    10.0   1_455     S
Ti130     Er317    10.002   .     S
V131     Ce138    9.999   .     S
V131     Ti132    10.0   .     S
Ti132     Er123    10.0   1_556     S
Ti132     Er195    10.002   .     S
V133     Ce142    9.999   .     S
V133     Ti134    10.0   .     S
Ti134     Er148    10.002   .     S
V135     Ce140    9.999   .     S
V135     Ti136    10.0   .     S
Ti136     Er126    10.0   1_554     S
Ti136     Er221    10.002   .     S
Ce137     Ce139    9.998   .     S
Ce137     Ce140    9.998   1_455     S
Ce138     Ce141    9.998   1_455     S
Ce138     Ce139    9.998   1_556     S
Ce139     Ce138    9.998   1_554     S
Ce139     V143    9.999   .     S
Ce140     Ce137    9.998   1_655     S
Ce140     Ce142    9.998   1_554     S
Ce141     Ce138    9.998   1_655     S
Ce141     Ce142    9.998   .     S
Ce142     Ce140    9.998   1_556     S
V143     Ti144    10.0   .     S
Er145     V157    10.0   .     S
Er145     Ti154    10.0   .     S
Er145     Ti264    10.002   .     S
Er146     V167    10.0   .     S
Er146     Ti152    10.0   .     S
Er147     V159    10.0   .     S
Er147     Ti156    10.0   .     S
Er147     Ti384    10.002   .     S
Er148     V151    10.0   .     S
Er148     Ti160    10.0   .     S
Er149     V155    10.0   .     S
Er149     Ti158    10.0   .     S
Er149     Ti184    10.002   .     S
Er150     V153    10.0   .     S
Er150     Ti168    10.0   .     S
V151     Ce162    9.999   .     S
V151     Ti152    10.0   .     S
V153     Ce164    9.999   .     S
V153     Ti154    10.0   .     S
V155     Ce166    9.999   .     S
V155     Ti156    10.0   .     S
Ti156     Er174    10.002   .     S
V157     Ce163    9.999   .     S
V157     Ti158    10.0   .     S
Ti158     Er243    10.002   .     S
V159     Ce165    9.999   .     S
V159     Ti160    10.0   .     S
Ti160     Er363    10.002   .     S
Ce161     Ce162    9.998   .     S
Ce161     Ce164    9.998   .     S
Ce161     V167    9.999   .     S
Ce162     Ce165    9.998   .     S
Ce163     Ce164    9.998   .     S
Ce163     Ce166    9.998   .     S
Ce165     Ce166    9.998   .     S
V167     Ti168    10.0   .     S
Er169     V175    10.0   .     S
Er169     Ti184    10.0   .     S
Er169     Ti224    10.002   .     S
Er170     V179    10.0   .     S
Er170     Ti176    10.0   1_545     S
Er171     V191    10.0   .     S
Er171     Ti180    10.0   1_455     S
Er172     V177    10.0   .     S
Er172     Ti192    10.0   .     S
Er172     Ti200    10.002   .     S
Er173     V181    10.0   .     S
Er173     Ti178    10.0   1_565     S
Er173     Ti276    10.002   .     S
Er174     V183    10.0   .     S
Er174     Ti182    10.0   1_655     S
V175     Ce186    9.999   .     S
V175     Ti176    10.0   .     S
Ti176     Er170    10.0   1_565     S
Ti176     Er222    10.002   .     S
V177     Ce188    9.999   .     S
V177     Ti178    10.0   .     S
Ti178     Er173    10.0   1_545     S
Ti178     Er198    10.002   .     S
V179     Ce189    9.999   .     S
V179     Ti180    10.0   .     S
Ti180     Er171    10.0   1_655     S
V181     Ce185    9.999   .     S
V181     Ti182    10.0   .     S
Ti182     Er174    10.0   1_455     S
Ti182     Er268    10.002   .     S
V183     Ce187    9.999   .     S
V183     Ti184    10.0   .     S
Ce185     Ce188    9.998   1_565     S
Ce185     Ce187    9.998   1_455     S
Ce186     Ce187    9.998   .     S
Ce186     Ce189    9.998   1_565     S
Ce187     Ce185    9.998   1_655     S
Ce188     Ce185    9.998   1_545     S
Ce188     Ce190    9.998   .     S
Ce189     Ce186    9.998   1_545     S
Ce189     Ce190    9.998   1_655     S
Ce190     Ce189    9.998   1_455     S
Ce190     V191    9.999   .     S
V191     Ti192    10.0   .     S
Er193     V207    10.0   .     S
Er193     Ti202    10.0   .     S
Er194     V205    10.0   .     S
Er194     Ti204    10.0   .     S
Er194     Ti300    10.002   .     S
Er195     V203    10.0   .     S
Er195     Ti216    10.0   .     S
Er196     V201    10.0   .     S
Er196     Ti200    10.0   .     S
Er196     Ti254    10.002   .     S
Er197     V215    10.0   .     S
Er197     Ti208    10.0   .     S
Er198     V199    10.0   .     S
Er198     Ti206    10.0   .     S
V199     Ce212    9.999   .     S
V199     Ti200    10.0   .     S
V201     Ce213    9.999   .     S
V201     Ti202    10.0   .     S
Ti202     Er242    10.002   .     S
V203     Ce210    9.999   .     S
V203     Ti204    10.0   .     S
V205     Ce211    9.999   .     S
V205     Ti206    10.0   .     S
Ti206     Er289    10.002   .     S
V207     Ce214    9.999   .     S
V207     Ti208    10.0   .     S
Ce209     Ce214    9.998   .     S
Ce209     Ce210    9.998   .     S
Ce209     V215    9.999   .     S
Ce210     Ce211    9.998   .     S
Ce211     Ce212    9.998   .     S
Ce212     Ce213    9.998   .     S
Ce213     Ce214    9.998   .     S
V215     Ti216    10.0   .     S
Er217     V231    10.0   .     S
Er217     Ti228    10.0   .     S
Er218     V229    10.0   .     S
Er218     Ti232    10.0   .     S
Er219     V225    10.0   .     S
Er219     Ti240    10.0   .     S
Er219     Ti312    10.002   .     S
Er220     V227    10.0   .     S
Er220     Ti224    10.0   .     S
Er220     Ti256    10.002   .     S
Er221     V239    10.0   .     S
Er221     Ti230    10.0   .     S
Er222     V223    10.0   .     S
Er222     Ti226    10.0   .     S
V223     Ce238    9.999   .     S
V223     Ti224    10.0   .     S
V225     Ce236    9.999   .     S
V225     Ti226    10.0   .     S
Ti226     Er291    10.002   .     S
V227     Ce237    9.999   .     S
V227     Ti228    10.0   .     S
Ti228     Er245    10.002   .     S
V229     Ce235    9.999   .     S
V229     Ti230    10.0   .     S
V231     Ce234    9.999   .     S
V231     Ti232    10.0   .     S
Ce233     Ce235    9.998   .     S
Ce233     Ce236    9.998   .     S
Ce233     V239    9.999   .     S
Ce234     Ce237    9.998   .     S
Ce234     Ce235    9.998   .     S
Ce236     Ce238    9.998   .     S
Ce237     Ce238    9.998   .     S
V239     Ti240    10.0   .     S
Er241     V249    10.0   .     S
Er241     Ti254    10.0   .     S
Er242     V253    10.0   .     S
Er242     Ti248    10.0   .     S
Er243     V263    10.0   .     S
Er243     Ti256    10.0   .     S
Er244     V247    10.0   .     S
Er244     Ti264    10.0   1_545     S
Er244     Ti344    10.002   .     S
Er245     V255    10.0   .     S
Er245     Ti252    10.0   .     S
Er246     V251    10.0   .     S
Er246     Ti250    10.0   1_565     S
Er246     Ti322    10.002   .     S
V247     Ce262    9.999   .     S
V247     Ti248    10.0   .     S
Ti248     Er338    10.002   .     S
V249     Ce260    9.999   .     S
V249     Ti250    10.0   .     S
Ti250     Er246    10.0   1_545     S
V251     Ce259    9.999   .     S
V251     Ti252    10.0   .     S
Ti252     Er318    10.002   .     S
V253     Ce261    9.999   .     S
V253     Ti254    10.0   .     S
V255     Ce258    9.999   .     S
V255     Ti256    10.0   .     S
Ce257     Ce258    9.998   .     S
Ce257     Ce262    9.998   1_565     S
Ce257     V263    9.999   .     S
Ce258     Ce259    9.998   .     S
Ce259     Ce260    9.998   1_565     S
Ce260     Ce259    9.998   1_545     S
Ce260     Ce261    9.998   .     S
Ce261     Ce262    9.998   .     S
Ce262     Ce257    9.998   1_545     S
V263     Ti264    10.0   .     S
Ti264     Er244    10.0   1_565     S
Er265     V271    10.0   .     S
Er265     Ti274    10.0   .     S
Er266     V277    10.0   .     S
Er266     Ti280    10.0   .     S
Er266     Ti368    10.002   .     S
Er267     V287    10.0   .     S
Er267     Ti272    10.0   .     S
Er268     V275    10.0   .     S
Er268     Ti278    10.0   .     S
Er269     V279    10.0   .     S
Er269     Ti288    10.0   .     S
Er270     V273    10.0   .     S
Er270     Ti276    10.0   .     S
Er270     Ti302    10.002   .     S
V271     Ce286    9.999   .     S
V271     Ti272    10.0   .     S
V273     Ce284    9.999   .     S
V273     Ti274    10.0   .     S
Ti274     Er293    10.002   .     S
V275     Ce281    9.999   .     S
V275     Ti276    10.0   .     S
V277     Ce283    9.999   .     S
V277     Ti278    10.0   .     S
Ti278     Er364    10.002   .     S
V279     Ce282    9.999   .     S
V279     Ti280    10.0   .     S
Ce281     Ce283    9.998   .     S
Ce281     Ce284    9.998   .     S
Ce282     Ce285    9.998   .     S
Ce282     Ce283    9.998   .     S
Ce284     Ce286    9.998   .     S
Ce285     Ce286    9.998   .     S
Ce285     V287    9.999   .     S
V287     Ti288    10.0   .     S
Er289     V299    10.0   .     S
Er289     Ti302    10.0   1_545     S
Er290     V297    10.0   .     S
Er290     Ti312    10.0   1_455     S
Er290     Ti324    10.002   .     S
Er291     V311    10.0   .     S
Er291     Ti296    10.0   1_565     S
Er292     V303    10.0   .     S
Er292     Ti300    10.0   1_655     S
Er292     Ti346    10.002   .     S
Er293     V301    10.0   .     S
Er293     Ti298    10.0   1_556     S
Er294     V295    10.0   .     S
Er294     Ti304    10.0   1_554     S
V295     Ce310    9.999   .     S
V295     Ti296    10.0   .     S
Ti296     Er291    10.0   1_545     S
V297     Ce308    9.999   .     S
V297     Ti298    10.0   .     S
Ti298     Er293    10.0   1_554     S
Ti298     Er314    10.002   .     S
V299     Ce306    9.999   .     S
V299     Ti300    10.0   .     S
Ti300     Er292    10.0   1_455     S
V301     Ce305    9.999   .     S
V301     Ti302    10.0   .     S
Ti302     Er289    10.0   1_565     S
V303     Ce309    9.999   .     S
V303     Ti304    10.0   .     S
Ti304     Er294    10.0   1_556     S
Ti304     Er339    10.002   .     S
Ce305     Ce308    9.998   1_556     S
Ce305     Ce306    9.998   1_565     S
Ce306     Ce305    9.998   1_545     S
Ce306     Ce309    9.998   1_455     S
Ce307     Ce310    9.998   1_565     S
Ce307     Ce308    9.998   1_655     S
Ce307     V311    9.999   .     S
Ce308     Ce305    9.998   1_554     S
Ce308     Ce307    9.998   1_455     S
Ce309     Ce306    9.998   1_655     S
Ce309     Ce310    9.998   1_556     S
Ce310     Ce307    9.998   1_545     S
Ce310     Ce309    9.998   1_554     S
V311     Ti312    10.0   .     S
Ti312     Er290    10.0   1_655     S
Er313     V325    10.0   .     S
Er313     Ti320    10.0   .     S
Er314     V323    10.0   .     S
Er314     Ti328    10.0   .     S
Er315     V327    10.0   .     S
Er315     Ti322    10.0   .     S
Er316     V319    10.0   .     S
Er316     Ti336    10.0   .     S
Er316     Ti374    10.002   .     S
Er317     V335    10.0   .     S
Er317     Ti324    10.0   .     S
Er318     V321    10.0   .     S
Er318     Ti326    10.0   .     S
V319     Ce332    9.999   .     S
V319     Ti320    10.0   .     S
Ti320     Er361    10.002   .     S
V321     Ce329    9.999   .     S
V321     Ti322    10.0   .     S
V323     Ce334    9.999   .     S
V323     Ti324    10.0   .     S
V325     Ce331    9.999   .     S
V325     Ti326    10.0   .     S
V327     Ce330    9.999   .     S
V327     Ti328    10.0   .     S
Ce329     Ce331    9.998   .     S
Ce329     Ce330    9.998   .     S
Ce330     Ce334    9.998   .     S
Ce331     Ce332    9.998   .     S
Ce332     Ce333    9.998   .     S
Ce333     Ce334    9.998   .     S
Ce333     V335    9.999   .     S
V335     Ti336    10.0   .     S
Er337     V351    10.0   .     S
Er337     Ti360    10.0   .     S
Er338     V343    10.0   .     S
Er338     Ti352    10.0   .     S
Er339     V345    10.0   .     S
Er339     Ti350    10.0   .     S
Er340     V349    10.0   .     S
Er340     Ti344    10.0   .     S
Er341     V359    10.0   .     S
Er341     Ti348    10.0   .     S
Er341     Ti376    10.002   .     S
Er342     V347    10.0   .     S
Er342     Ti346    10.0   .     S
V343     Ce358    9.999   .     S
V343     Ti344    10.0   .     S
V345     Ce353    9.999   .     S
V345     Ti346    10.0   .     S
V347     Ce354    9.999   .     S
V347     Ti348    10.0   .     S
V349     Ce356    9.999   .     S
V349     Ti350    10.0   .     S
V351     Ce357    9.999   .     S
V351     Ti352    10.0   .     S
Ce353     Ce356    9.998   .     S
Ce353     Ce354    9.998   .     S
Ce354     Ce355    9.998   .     S
Ce355     Ce357    9.998   .     S
Ce355     V359    9.999   .     S
Ce356     Ce358    9.998   .     S
Ce357     Ce358    9.998   .     S
V359     Ti360    10.0   .     S
Ti360     Er365    10.002   .     S
Er361     V373    10.0   .     S
Er361     Ti368    10.0   .     S
Er362     V369    10.0   .     S
Er362     Ti374    10.0   .     S
Er363     V383    10.0   .     S
Er363     Ti376    10.0   .     S
Er364     V367    10.0   .     S
Er364     Ti384    10.0   1_455     S
Er365     V375    10.0   .     S
Er365     Ti372    10.0   .     S
Er366     V371    10.0   .     S
Er366     Ti370    10.0   1_655     S
V367     Ce380    9.999   .     S
V367     Ti368    10.0   .     S
V369     Ce378    9.999   .     S
V369     Ti370    10.0   .     S
Ti370     Er366    10.0   1_455     S
V371     Ce382    9.999   .     S
V371     Ti372    10.0   .     S
V373     Ce379    9.999   .     S
V373     Ti374    10.0   .     S
V375     Ce381    9.999   .     S
V375     Ti376    10.0   .     S
Ce377     Ce381    9.998   .     S
Ce377     Ce380    9.998   1_655     S
Ce377     V383    9.999   .     S
Ce378     Ce379    9.998   .     S
Ce378     Ce382    9.998   1_455     S
Ce379     Ce380    9.998   .     S
Ce380     Ce377    9.998   1_455     S
Ce381     Ce382    9.998   .     S
Ce382     Ce378    9.998   1_655     S
V383     Ti384    10.0   .     S
Ti384     Er364    10.0   1_655     S
