data_noh
_audit_creation_date              2020-02-02
_audit_creation_method            'Pymatgen'
_symmetry_space_group_name_H-M    'P1'
_symmetry_Int_Tables_number       1
loop_
_symmetry_equiv_pos_as_xyz
  x,y,z
_cell_length_a                    46.0162
_cell_length_b                    46.0162
_cell_length_c                    46.0162
_cell_angle_alpha                 90.0
_cell_angle_beta                 90.0
_cell_angle_gamma                 90.0
loop_
_atom_site_label
_atom_site_type_symbol
_atom_site_fract_x
_atom_site_fract_y
_atom_site_fract_z
Er1     Er     0.4289   0.3639   0.1362
Er2     Er     0.3639   0.1362   0.4289
V3     V     0.3096   0.3096   0.3096
Er4     Er     0.1362   0.4289   0.3639
Er5     Er     0.3639   0.3638   0.9289
Er6     Er     0.1362   0.0711   0.8639
V7     V     0.3096   0.1904   0.8096
Er8     Er     0.4289   0.1361   0.6362
Er9     Er     0.9289   0.3639   0.3638
Er10     Er     0.8639   0.1362   0.0711
V11     V     0.8096   0.3096   0.1904
Er12     Er     0.6362   0.4289   0.1361
Er13     Er     0.8638   0.9289   0.1361
Er14     Er     0.6361   0.6362   0.0711
V15     V     0.6904   0.8096   0.1904
Er16     Er     0.5711   0.8639   0.3638
Er17     Er     0.9289   0.1361   0.8638
Er18     Er     0.6362   0.0711   0.6361
V19     V     0.8096   0.1904   0.6904
Er20     Er     0.8639   0.3638   0.5711
Er21     Er     0.5711   0.6361   0.8638
Er22     Er     0.6361   0.8638   0.5711
V23     V     0.6904   0.6904   0.6904
Er24     Er     0.8638   0.5711   0.6361
Er25     Er     0.3638   0.9289   0.3639
Er26     Er     0.0711   0.8639   0.1362
V27     V     0.1904   0.8096   0.3096
Er28     Er     0.1361   0.6362   0.4289
Er29     Er     0.1361   0.8638   0.9289
Er30     Er     0.0711   0.6361   0.6362
V31     V     0.1904   0.6904   0.8096
Er32     Er     0.3638   0.5711   0.8639
loop_
_geom_bond_atom_site_label_1
_geom_bond_atom_site_label_2
_geom_bond_distance
_geom_bond_site_symmetry_2
_ccdc_geom_bond_type
Er1     Er12    10.0   .     S
Er1     V3    10.0   .     S
Er1     Er5    10.0   1_554     S
Er2     Er8    10.0   .     S
Er2     V3    10.0   .     S
Er2     Er25    10.0   1_545     S
V3     Er4    10.0   .     S
Er4     Er28    10.0   .     S
Er4     Er9    10.0   1_455     S
Er5     Er1    10.0   1_556     S
Er5     V7    10.0   .     S
Er5     Er32    10.0   .     S
Er6     Er29    10.0   1_545     S
Er6     V7    10.0   .     S
Er6     Er17    10.0   1_455     S
V7     Er8    10.0   .     S
Er8     Er18    10.0   .     S
Er9     Er4    10.0   1_655     S
Er9     V11    10.0   .     S
Er9     Er20    10.0   .     S
Er10     Er17    10.0   1_554     S
Er10     V11    10.0   .     S
Er10     Er13    10.0   1_545     S
V11     Er12    10.0   .     S
Er12     Er14    10.0   .     S
Er13     Er10    10.0   1_565     S
Er13     V15    10.0   .     S
Er13     Er26    10.0   1_655     S
Er14     Er21    10.0   1_554     S
Er14     V15    10.0   .     S
V15     Er16    10.0   .     S
Er16     Er25    10.0   .     S
Er16     Er22    10.0   .     S
Er17     Er10    10.0   1_556     S
Er17     Er6    10.0   1_655     S
Er17     V19    10.0   .     S
Er18     Er22    10.0   1_545     S
Er18     V19    10.0   .     S
V19     Er20    10.0   .     S
Er20     Er24    10.0   .     S
Er21     Er14    10.0   1_556     S
Er21     Er32    10.0   .     S
Er21     V23    10.0   .     S
Er22     Er18    10.0   1_565     S
Er22     V23    10.0   .     S
V23     Er24    10.0   .     S
Er24     Er30    10.0   1_655     S
Er25     Er2    10.0   1_565     S
Er25     V27    10.0   .     S
Er26     Er13    10.0   1_455     S
Er26     V27    10.0   .     S
Er26     Er29    10.0   1_554     S
V27     Er28    10.0   .     S
Er28     Er30    10.0   .     S
Er29     Er6    10.0   1_565     S
Er29     Er26    10.0   1_556     S
Er29     V31    10.0   .     S
Er30     Er24    10.0   1_455     S
Er30     V31    10.0   .     S
V31     Er32    10.0   .     S
