data_npoe
_audit_creation_date              2020-02-02
_audit_creation_method            'Pymatgen'
_symmetry_space_group_name_H-M    'P1'
_symmetry_Int_Tables_number       1
loop_
_symmetry_equiv_pos_as_xyz
  x,y,z
_cell_length_a                    34.495
_cell_length_b                    34.495
_cell_length_c                    20.0
_cell_angle_alpha                 90.0
_cell_angle_beta                 90.0
_cell_angle_gamma                 120.0
loop_
_atom_site_label
_atom_site_type_symbol
_atom_site_fract_x
_atom_site_fract_y
_atom_site_fract_z
Er1     Er     0.5   0.0   0.5
Er2     Er     0.5   0.0   0.0
V3     V     0.2367   0.7633   0.75
V4     V     0.7633   0.2367   0.25
Er5     Er     0.0   0.5   0.0
Er6     Er     0.0   0.5   0.5
V7     V     0.2367   0.4734   0.75
V8     V     0.5266   0.7633   0.75
V9     V     0.7633   0.5266   0.25
Er10     Er     0.5   0.5   0.0
Er11     Er     0.5   0.5   0.5
V12     V     0.4734   0.2367   0.25
loop_
_geom_bond_atom_site_label_1
_geom_bond_atom_site_label_2
_geom_bond_distance
_geom_bond_site_symmetry_2
_ccdc_geom_bond_type
Er1     V3    10.0   1_545     S
Er1     V12    10.0   .     S
Er1     Er2    10.0   1_556     S
Er1     Er2    10.0   .     S
Er1     V8    10.0   1_545     S
Er1     V4    10.0   .     S
Er2     V3    10.0   1_544     S
Er2     V12    10.0   .     S
Er2     Er1    10.0   1_554     S
Er2     V8    10.0   1_544     S
Er2     V4    10.0   .     S
V3     Er2    10.0   1_566     S
V3     Er1    10.0   1_565     S
V3     Er6    10.0   .     S
V3     Er5    10.0   1_556     S
V3     V7    10.0   .     S
V3     V8    10.0   .     S
V4     V12    10.0   .     S
V4     Er5    10.0   1_655     S
V4     Er6    10.0   1_655     S
V4     V9    10.0   .     S
Er5     V3    10.0   1_554     S
Er5     V9    10.0   1_455     S
Er5     V4    10.0   1_455     S
Er5     Er6    10.0   .     S
Er5     Er6    10.0   1_554     S
Er5     V7    10.0   1_554     S
Er6     V9    10.0   1_455     S
Er6     V4    10.0   1_455     S
Er6     Er5    10.0   1_556     S
Er6     V7    10.0   .     S
V7     Er5    10.0   1_556     S
V7     Er11    10.0   .     S
V7     Er10    10.0   1_556     S
V7     V8    10.0   .     S
V8     Er1    10.0   1_565     S
V8     Er2    10.0   1_566     S
V8     Er10    10.0   1_556     S
V8     Er11    10.0   .     S
V9     Er6    10.0   1_655     S
V9     Er5    10.0   1_655     S
V9     Er10    10.0   .     S
V9     Er11    10.0   .     S
V9     V12    10.0   .     S
Er10     V7    10.0   1_554     S
Er10     V8    10.0   1_554     S
Er10     Er11    10.0   .     S
Er10     Er11    10.0   1_554     S
Er10     V12    10.0   .     S
Er11     Er10    10.0   1_556     S
Er11     V12    10.0   .     S
