data_ntva
_audit_creation_date              2020-02-02
_audit_creation_method            'Pymatgen'
_symmetry_space_group_name_H-M    'P1'
_symmetry_Int_Tables_number       1
loop_
_symmetry_equiv_pos_as_xyz
  x,y,z
_cell_length_a                    96.9175
_cell_length_b                    96.9175
_cell_length_c                    96.9175
_cell_angle_alpha                 90.0
_cell_angle_beta                 90.0
_cell_angle_gamma                 90.0
loop_
_atom_site_label
_atom_site_type_symbol
_atom_site_fract_x
_atom_site_fract_y
_atom_site_fract_z
Ce1     Ce     0.5926   0.5926   0.1656
Ce2     Ce     0.6656   0.5926   0.0926
Ce3     Ce     0.5926   0.6656   0.0926
Ti4     Ti     0.7509   0.5516   0.0516
Ti5     Ti     0.7509   0.5516   0.9484
Ti6     Ti     0.7509   0.4484   0.0516
Ti7     Ti     0.7509   0.4484   0.9484
Ti8     Ti     0.5516   0.7509   0.0516
Ti9     Ti     0.5516   0.7509   0.9484
Ti10     Ti     0.4484   0.7509   0.0516
Ti11     Ti     0.4484   0.7509   0.9484
Ce12     Ce     0.5926   0.5926   0.8344
Ce13     Ce     0.5926   0.6656   0.9074
Ce14     Ce     0.6656   0.5926   0.9074
Ce15     Ce     0.3344   0.5926   0.9074
Ce16     Ce     0.4074   0.5926   0.8344
Ce17     Ce     0.4074   0.6656   0.9074
Ce18     Ce     0.5926   0.3344   0.9074
Ce19     Ce     0.5926   0.4074   0.8344
Ce20     Ce     0.6656   0.4074   0.9074
Ti21     Ti     0.5516   0.4484   0.7491
Ti22     Ti     0.5516   0.5516   0.7491
Ti23     Ti     0.4484   0.5516   0.7491
Ti24     Ti     0.4484   0.4484   0.7491
Ce25     Ce     0.4074   0.3344   0.9074
Ce26     Ce     0.3344   0.4074   0.9074
Ce27     Ce     0.4074   0.4074   0.8344
Ce28     Ce     0.5926   0.3344   0.0926
Ce29     Ce     0.5926   0.4074   0.1656
Ce30     Ce     0.6656   0.4074   0.0926
Ce31     Ce     0.3344   0.5926   0.0926
Ce32     Ce     0.4074   0.5926   0.1656
Ce33     Ce     0.4074   0.6656   0.0926
Ti34     Ti     0.5516   0.2491   0.0516
Ti35     Ti     0.5516   0.2491   0.9484
Ti36     Ti     0.4484   0.2491   0.0516
Ti37     Ti     0.4484   0.2491   0.9484
Ti38     Ti     0.2491   0.5516   0.0516
Ti39     Ti     0.2491   0.5516   0.9484
Ti40     Ti     0.2491   0.4484   0.0516
Ti41     Ti     0.2491   0.4484   0.9484
Ti42     Ti     0.5516   0.4484   0.2509
Ti43     Ti     0.5516   0.5516   0.2509
Ti44     Ti     0.4484   0.5516   0.2509
Ti45     Ti     0.4484   0.4484   0.2509
Ce46     Ce     0.3344   0.4074   0.0926
Ce47     Ce     0.4074   0.3344   0.0926
Ce48     Ce     0.4074   0.4074   0.1656
Ce49     Ce     0.5926   0.1656   0.5926
Ce50     Ce     0.5926   0.0926   0.6656
Ce51     Ce     0.6656   0.0926   0.5926
Ti52     Ti     0.7509   0.0516   0.5516
Ti53     Ti     0.7509   0.9484   0.5516
Ti54     Ti     0.7509   0.0516   0.4484
Ti55     Ti     0.7509   0.9484   0.4484
Ti56     Ti     0.5516   0.0516   0.7509
Ti57     Ti     0.5516   0.9484   0.7509
Ti58     Ti     0.4484   0.0516   0.7509
Ti59     Ti     0.4484   0.9484   0.7509
Ce60     Ce     0.3344   0.0926   0.5926
Ce61     Ce     0.4074   0.1656   0.5926
Ce62     Ce     0.4074   0.0926   0.6656
Ce63     Ce     0.5926   0.8344   0.5926
Ce64     Ce     0.5926   0.9074   0.6656
Ce65     Ce     0.6656   0.9074   0.5926
Ce66     Ce     0.3344   0.9074   0.5926
Ce67     Ce     0.4074   0.8344   0.5926
Ce68     Ce     0.4074   0.9074   0.6656
Ce69     Ce     0.5926   0.9074   0.3344
Ce70     Ce     0.5926   0.8344   0.4074
Ce71     Ce     0.6656   0.9074   0.4074
Ti72     Ti     0.5516   0.7491   0.5516
Ti73     Ti     0.5516   0.7491   0.4484
Ti74     Ti     0.4484   0.7491   0.5516
Ti75     Ti     0.4484   0.7491   0.4484
Ce76     Ce     0.4074   0.9074   0.3344
Ce77     Ce     0.3344   0.9074   0.4074
Ce78     Ce     0.4074   0.8344   0.4074
Ce79     Ce     0.5926   0.0926   0.3344
Ce80     Ce     0.5926   0.1656   0.4074
Ce81     Ce     0.6656   0.0926   0.4074
Ti82     Ti     0.2491   0.0516   0.5516
Ti83     Ti     0.2491   0.9484   0.5516
Ti84     Ti     0.2491   0.0516   0.4484
Ti85     Ti     0.2491   0.9484   0.4484
Ti86     Ti     0.5516   0.0516   0.2491
Ti87     Ti     0.5516   0.9484   0.2491
Ti88     Ti     0.4484   0.0516   0.2491
Ti89     Ti     0.4484   0.9484   0.2491
Ti90     Ti     0.5516   0.2509   0.4484
Ti91     Ti     0.5516   0.2509   0.5516
Ti92     Ti     0.4484   0.2509   0.5516
Ti93     Ti     0.4484   0.2509   0.4484
Ce94     Ce     0.4074   0.0926   0.3344
Ce95     Ce     0.3344   0.0926   0.4074
Ce96     Ce     0.4074   0.1656   0.4074
V97     V     0.573   0.5   0.5
Er98     Er     0.6761   0.5   0.5
V99     V     0.5   0.5   0.573
Er100     Er     0.5   0.5   0.6761
V101     V     0.5   0.5   0.427
Er102     Er     0.5   0.5   0.3239
V103     V     0.5   0.427   0.5
Er104     Er     0.5   0.3239   0.5
V105     V     0.427   0.5   0.5
Er106     Er     0.3239   0.5   0.5
V107     V     0.5   0.573   0.5
Er108     Er     0.5   0.6761   0.5
Ce109     Ce     0.1656   0.5926   0.5926
Ce110     Ce     0.0926   0.5926   0.6656
Ce111     Ce     0.0926   0.6656   0.5926
Ti112     Ti     0.0516   0.7509   0.5516
Ti113     Ti     0.9484   0.7509   0.5516
Ti114     Ti     0.0516   0.7509   0.4484
Ti115     Ti     0.9484   0.7509   0.4484
Ti116     Ti     0.0516   0.5516   0.7509
Ti117     Ti     0.9484   0.5516   0.7509
Ti118     Ti     0.0516   0.4484   0.7509
Ti119     Ti     0.9484   0.4484   0.7509
Ce120     Ce     0.0926   0.3344   0.5926
Ce121     Ce     0.1656   0.4074   0.5926
Ce122     Ce     0.0926   0.4074   0.6656
Ce123     Ce     0.8344   0.5926   0.5926
Ce124     Ce     0.9074   0.5926   0.6656
Ce125     Ce     0.9074   0.6656   0.5926
Ce126     Ce     0.9074   0.5926   0.3344
Ce127     Ce     0.8344   0.5926   0.4074
Ce128     Ce     0.9074   0.6656   0.4074
Ce129     Ce     0.9074   0.3344   0.5926
Ce130     Ce     0.8344   0.4074   0.5926
Ce131     Ce     0.9074   0.4074   0.6656
Ti132     Ti     0.7491   0.5516   0.5516
Ti133     Ti     0.7491   0.5516   0.4484
Ti134     Ti     0.7491   0.4484   0.5516
Ti135     Ti     0.7491   0.4484   0.4484
Ce136     Ce     0.9074   0.4074   0.3344
Ce137     Ce     0.9074   0.3344   0.4074
Ce138     Ce     0.8344   0.4074   0.4074
Ce139     Ce     0.0926   0.5926   0.3344
Ce140     Ce     0.1656   0.5926   0.4074
Ce141     Ce     0.0926   0.6656   0.4074
Ti142     Ti     0.0516   0.2491   0.5516
Ti143     Ti     0.9484   0.2491   0.5516
Ti144     Ti     0.0516   0.2491   0.4484
Ti145     Ti     0.9484   0.2491   0.4484
Ti146     Ti     0.2509   0.5516   0.5516
Ti147     Ti     0.2509   0.5516   0.4484
Ti148     Ti     0.2509   0.4484   0.5516
Ti149     Ti     0.2509   0.4484   0.4484
Ti150     Ti     0.0516   0.5516   0.2491
Ti151     Ti     0.9484   0.5516   0.2491
Ti152     Ti     0.0516   0.4484   0.2491
Ti153     Ti     0.9484   0.4484   0.2491
Ce154     Ce     0.0926   0.4074   0.3344
Ce155     Ce     0.0926   0.3344   0.4074
Ce156     Ce     0.1656   0.4074   0.4074
V157     V     0.0   0.573   0.0
Er158     Er     0.0   0.6761   0.0
Er159     Er     0.8239   0.5   0.0
V160     V     0.927   0.5   0.0
Er161     Er     0.0   0.5   0.8239
V162     V     0.0   0.5   0.927
V163     V     0.0   0.427   0.0
Er164     Er     0.0   0.3239   0.0
V165     V     0.073   0.5   0.0
Er166     Er     0.1761   0.5   0.0
V167     V     0.0   0.5   0.073
Er168     Er     0.0   0.5   0.1761
V169     V     0.573   0.0   0.0
Er170     Er     0.6761   0.0   0.0
Er171     Er     0.5   0.8239   0.0
V172     V     0.5   0.927   0.0
Er173     Er     0.5   0.0   0.8239
V174     V     0.5   0.0   0.927
V175     V     0.427   0.0   0.0
Er176     Er     0.3239   0.0   0.0
V177     V     0.5   0.073   0.0
Er178     Er     0.5   0.1761   0.0
V179     V     0.5   0.0   0.073
Er180     Er     0.5   0.0   0.1761
V181     V     0.0   0.0   0.573
Er182     Er     0.0   0.0   0.6761
Er183     Er     0.8239   0.0   0.5
V184     V     0.927   0.0   0.5
Er185     Er     0.0   0.8239   0.5
V186     V     0.0   0.927   0.5
V187     V     0.0   0.0   0.427
Er188     Er     0.0   0.0   0.3239
V189     V     0.073   0.0   0.5
Er190     Er     0.1761   0.0   0.5
V191     V     0.0   0.073   0.5
Er192     Er     0.0   0.1761   0.5
Ce193     Ce     0.9074   0.9074   0.8344
Ce194     Ce     0.8344   0.9074   0.9074
Ce195     Ce     0.9074   0.8344   0.9074
Ti196     Ti     0.9484   0.7491   0.0516
Ti197     Ti     0.9484   0.7491   0.9484
Ti198     Ti     0.0516   0.7491   0.0516
Ti199     Ti     0.0516   0.7491   0.9484
Ce200     Ce     0.0926   0.9074   0.1656
Ce201     Ce     0.1656   0.9074   0.0926
Ce202     Ce     0.0926   0.8344   0.0926
Ce203     Ce     0.0926   0.9074   0.8344
Ce204     Ce     0.1656   0.9074   0.9074
Ce205     Ce     0.0926   0.8344   0.9074
Ti206     Ti     0.9484   0.9484   0.7491
Ti207     Ti     0.0516   0.9484   0.7491
Ti208     Ti     0.0516   0.0516   0.7491
Ti209     Ti     0.9484   0.0516   0.7491
Ce210     Ce     0.0926   0.1656   0.9074
Ce211     Ce     0.1656   0.0926   0.9074
Ce212     Ce     0.0926   0.0926   0.8344
Ce213     Ce     0.8344   0.0926   0.9074
Ce214     Ce     0.9074   0.1656   0.9074
Ce215     Ce     0.9074   0.0926   0.8344
Ce216     Ce     0.8344   0.9074   0.0926
Ce217     Ce     0.9074   0.9074   0.1656
Ce218     Ce     0.9074   0.8344   0.0926
Ti219     Ti     0.7491   0.9484   0.0516
Ti220     Ti     0.7491   0.9484   0.9484
Ti221     Ti     0.7491   0.0516   0.0516
Ti222     Ti     0.7491   0.0516   0.9484
Ce223     Ce     0.9074   0.0926   0.1656
Ce224     Ce     0.9074   0.1656   0.0926
Ce225     Ce     0.8344   0.0926   0.0926
Ti226     Ti     0.9484   0.2509   0.9484
Ti227     Ti     0.9484   0.2509   0.0516
Ti228     Ti     0.0516   0.2509   0.0516
Ti229     Ti     0.0516   0.2509   0.9484
Ti230     Ti     0.2509   0.9484   0.0516
Ti231     Ti     0.2509   0.9484   0.9484
Ti232     Ti     0.2509   0.0516   0.0516
Ti233     Ti     0.2509   0.0516   0.9484
Ti234     Ti     0.9484   0.9484   0.2509
Ti235     Ti     0.9484   0.0516   0.2509
Ti236     Ti     0.0516   0.0516   0.2509
Ti237     Ti     0.0516   0.9484   0.2509
Ce238     Ce     0.0926   0.0926   0.1656
Ce239     Ce     0.0926   0.1656   0.0926
Ce240     Ce     0.1656   0.0926   0.0926
loop_
_geom_bond_atom_site_label_1
_geom_bond_atom_site_label_2
_geom_bond_distance
_geom_bond_site_symmetry_2
_ccdc_geom_bond_type
Ce1     Ce3    10.0   .     S
Ce1     Ce2    10.0   .     S
Ce1     Ti43    10.0   .     S
Ce2     Ce3    10.0   .     S
Ce2     Ti4    10.0   .     S
Ce3     Ti8    10.0   .     S
Ti4     Er159    10.0   .     S
Ti4     Ti5    10.0   1_554     S
Ti4     Ti6    10.0   .     S
Ti5     Er159    10.0   1_556     S
Ti5     Ce14    10.0   .     S
Ti5     Ti4    10.0   1_556     S
Ti5     Ti7    10.0   .     S
Ti6     Er159    10.0   .     S
Ti6     Ce30    10.0   .     S
Ti6     Ti7    10.0   1_554     S
Ti7     Er159    10.0   1_556     S
Ti7     Ce20    10.0   .     S
Ti7     Ti6    10.0   1_556     S
Ti8     Er171    10.0   .     S
Ti8     Ti9    10.0   1_554     S
Ti8     Ti10    10.0   .     S
Ti9     Er171    10.0   1_556     S
Ti9     Ce13    10.0   .     S
Ti9     Ti8    10.0   1_556     S
Ti9     Ti11    10.0   .     S
Ti10     Er171    10.0   .     S
Ti10     Ce33    10.0   .     S
Ti10     Ti11    10.0   1_554     S
Ti11     Er171    10.0   1_556     S
Ti11     Ce17    10.0   .     S
Ti11     Ti10    10.0   1_556     S
Ce12     Ce14    10.0   .     S
Ce12     Ce13    10.0   .     S
Ce12     Ti22    10.0   .     S
Ce13     Ce14    10.0   .     S
Ce15     Ce17    10.0   .     S
Ce15     Ce16    10.0   .     S
Ce15     Ti39    10.0   .     S
Ce16     Ce17    10.0   .     S
Ce16     Ti23    10.0   .     S
Ce18     Ce20    10.0   .     S
Ce18     Ce19    10.0   .     S
Ce18     Ti35    10.0   .     S
Ce19     Ce20    10.0   .     S
Ce19     Ti21    10.0   .     S
Ti21     Er100    10.0   .     S
Ti21     Ti22    10.0   .     S
Ti21     Ti24    10.0   .     S
Ti22     Er100    10.0   .     S
Ti22     Ti23    10.0   .     S
Ti23     Er100    10.0   .     S
Ti23     Ti24    10.0   .     S
Ti24     Er100    10.0   .     S
Ti24     Ce27    10.0   .     S
Ce25     Ce26    10.0   .     S
Ce25     Ce27    10.0   .     S
Ce25     Ti37    10.0   .     S
Ce26     Ce27    10.0   .     S
Ce26     Ti41    10.0   .     S
Ce28     Ce30    10.0   .     S
Ce28     Ce29    10.0   .     S
Ce28     Ti34    10.0   .     S
Ce29     Ce30    10.0   .     S
Ce29     Ti42    10.0   .     S
Ce31     Ce33    10.0   .     S
Ce31     Ce32    10.0   .     S
Ce31     Ti38    10.0   .     S
Ce32     Ce33    10.0   .     S
Ce32     Ti44    10.0   .     S
Ti34     Er178    10.0   .     S
Ti34     Ti35    10.0   1_554     S
Ti34     Ti36    10.0   .     S
Ti35     Er178    10.0   1_556     S
Ti35     Ti34    10.0   1_556     S
Ti35     Ti37    10.0   .     S
Ti36     Er178    10.0   .     S
Ti36     Ce47    10.0   .     S
Ti36     Ti37    10.0   1_554     S
Ti37     Er178    10.0   1_556     S
Ti37     Ti36    10.0   1_556     S
Ti38     Er166    10.0   .     S
Ti38     Ti39    10.0   1_554     S
Ti38     Ti40    10.0   .     S
Ti39     Er166    10.0   1_556     S
Ti39     Ti38    10.0   1_556     S
Ti39     Ti41    10.0   .     S
Ti40     Er166    10.0   .     S
Ti40     Ce46    10.0   .     S
Ti40     Ti41    10.0   1_554     S
Ti41     Er166    10.0   1_556     S
Ti41     Ti40    10.0   1_556     S
Ti42     Er102    10.0   .     S
Ti42     Ti43    10.0   .     S
Ti42     Ti45    10.0   .     S
Ti43     Er102    10.0   .     S
Ti43     Ti44    10.0   .     S
Ti44     Er102    10.0   .     S
Ti44     Ti45    10.0   .     S
Ti45     Er102    10.0   .     S
Ti45     Ce48    10.0   .     S
Ce46     Ce47    10.0   .     S
Ce46     Ce48    10.0   .     S
Ce47     Ce48    10.0   .     S
Ce49     Ce50    10.0   .     S
Ce49     Ce51    10.0   .     S
Ce49     Ti91    10.0   .     S
Ce50     Ce51    10.0   .     S
Ce50     Ti56    10.0   .     S
Ce51     Ti52    10.0   .     S
Ti52     Er183    10.0   .     S
Ti52     Ti53    10.0   1_545     S
Ti52     Ti54    10.0   .     S
Ti53     Er183    10.0   1_565     S
Ti53     Ce65    10.0   .     S
Ti53     Ti52    10.0   1_565     S
Ti53     Ti55    10.0   .     S
Ti54     Er183    10.0   .     S
Ti54     Ce81    10.0   .     S
Ti54     Ti55    10.0   1_545     S
Ti55     Er183    10.0   1_565     S
Ti55     Ce71    10.0   .     S
Ti55     Ti54    10.0   1_565     S
Ti56     Er173    10.0   .     S
Ti56     Ti57    10.0   1_545     S
Ti56     Ti58    10.0   .     S
Ti57     Er173    10.0   1_565     S
Ti57     Ce64    10.0   .     S
Ti57     Ti56    10.0   1_565     S
Ti57     Ti59    10.0   .     S
Ti58     Er173    10.0   .     S
Ti58     Ce62    10.0   .     S
Ti58     Ti59    10.0   1_545     S
Ti59     Er173    10.0   1_565     S
Ti59     Ce68    10.0   .     S
Ti59     Ti58    10.0   1_565     S
Ce60     Ce62    10.0   .     S
Ce60     Ce61    10.0   .     S
Ce60     Ti82    10.0   .     S
Ce61     Ce62    10.0   .     S
Ce61     Ti92    10.0   .     S
Ce63     Ce64    10.0   .     S
Ce63     Ce65    10.0   .     S
Ce63     Ti72    10.0   .     S
Ce64     Ce65    10.0   .     S
Ce66     Ce68    10.0   .     S
Ce66     Ce67    10.0   .     S
Ce66     Ti83    10.0   .     S
Ce67     Ce68    10.0   .     S
Ce67     Ti74    10.0   .     S
Ce69     Ce71    10.0   .     S
Ce69     Ce70    10.0   .     S
Ce69     Ti87    10.0   .     S
Ce70     Ce71    10.0   .     S
Ce70     Ti73    10.0   .     S
Ti72     Er108    10.0   .     S
Ti72     Ti73    10.0   .     S
Ti72     Ti74    10.0   .     S
Ti73     Er108    10.0   .     S
Ti73     Ti75    10.0   .     S
Ti74     Er108    10.0   .     S
Ti74     Ti75    10.0   .     S
Ti75     Er108    10.0   .     S
Ti75     Ce78    10.0   .     S
Ce76     Ce77    10.0   .     S
Ce76     Ce78    10.0   .     S
Ce76     Ti89    10.0   .     S
Ce77     Ce78    10.0   .     S
Ce77     Ti85    10.0   .     S
Ce79     Ce81    10.0   .     S
Ce79     Ce80    10.0   .     S
Ce79     Ti86    10.0   .     S
Ce80     Ce81    10.0   .     S
Ce80     Ti90    10.0   .     S
Ti82     Er190    10.0   .     S
Ti82     Ti83    10.0   1_545     S
Ti82     Ti84    10.0   .     S
Ti83     Er190    10.0   1_565     S
Ti83     Ti82    10.0   1_565     S
Ti83     Ti85    10.0   .     S
Ti84     Er190    10.0   .     S
Ti84     Ce95    10.0   .     S
Ti84     Ti85    10.0   1_545     S
Ti85     Er190    10.0   1_565     S
Ti85     Ti84    10.0   1_565     S
Ti86     Er180    10.0   .     S
Ti86     Ti87    10.0   1_545     S
Ti86     Ti88    10.0   .     S
Ti87     Er180    10.0   1_565     S
Ti87     Ti86    10.0   1_565     S
Ti87     Ti89    10.0   .     S
Ti88     Er180    10.0   .     S
Ti88     Ce94    10.0   .     S
Ti88     Ti89    10.0   1_545     S
Ti89     Er180    10.0   1_565     S
Ti89     Ti88    10.0   1_565     S
Ti90     Er104    10.0   .     S
Ti90     Ti91    10.0   .     S
Ti90     Ti93    10.0   .     S
Ti91     Er104    10.0   .     S
Ti91     Ti92    10.0   .     S
Ti92     Er104    10.0   .     S
Ti92     Ti93    10.0   .     S
Ti93     Er104    10.0   .     S
Ti93     Ce96    10.0   .     S
Ce94     Ce95    10.0   .     S
Ce94     Ce96    10.0   .     S
Ce95     Ce96    10.0   .     S
V97     Er98    10.0   .     S
V97     V99    10.0   .     S
V97     V101    10.0   .     S
V97     V103    10.0   .     S
V97     V107    10.0   .     S
Er98     Ti132    10.0   .     S
Er98     Ti133    10.0   .     S
Er98     Ti134    10.0   .     S
Er98     Ti135    10.0   .     S
V99     Er100    10.0   .     S
V99     V105    10.0   .     S
V99     V103    10.0   .     S
V99     V107    10.0   .     S
V101     Er102    10.0   .     S
V101     V105    10.0   .     S
V101     V103    10.0   .     S
V101     V107    10.0   .     S
V103     Er104    10.0   .     S
V103     V105    10.0   .     S
V105     Er106    10.0   .     S
V105     V107    10.0   .     S
Er106     Ti146    10.0   .     S
Er106     Ti147    10.0   .     S
Er106     Ti148    10.0   .     S
Er106     Ti149    10.0   .     S
V107     Er108    10.0   .     S
Ce109     Ce110    10.0   .     S
Ce109     Ce111    10.0   .     S
Ce109     Ti146    10.0   .     S
Ce110     Ce111    10.0   .     S
Ce110     Ti116    10.0   .     S
Ce111     Ti112    10.0   .     S
Ti112     Er185    10.0   .     S
Ti112     Ti113    10.0   1_455     S
Ti112     Ti114    10.0   .     S
Ti113     Er185    10.0   1_655     S
Ti113     Ce125    10.0   .     S
Ti113     Ti112    10.0   1_655     S
Ti113     Ti115    10.0   .     S
Ti114     Er185    10.0   .     S
Ti114     Ce141    10.0   .     S
Ti114     Ti115    10.0   1_455     S
Ti115     Er185    10.0   1_655     S
Ti115     Ce128    10.0   .     S
Ti115     Ti114    10.0   1_655     S
Ti116     Er161    10.0   .     S
Ti116     Ti117    10.0   1_455     S
Ti116     Ti118    10.0   .     S
Ti117     Er161    10.0   1_655     S
Ti117     Ce124    10.0   .     S
Ti117     Ti116    10.0   1_655     S
Ti117     Ti119    10.0   .     S
Ti118     Er161    10.0   .     S
Ti118     Ce122    10.0   .     S
Ti118     Ti119    10.0   1_455     S
Ti119     Er161    10.0   1_655     S
Ti119     Ce131    10.0   .     S
Ti119     Ti118    10.0   1_655     S
Ce120     Ce122    10.0   .     S
Ce120     Ce121    10.0   .     S
Ce120     Ti142    10.0   .     S
Ce121     Ce122    10.0   .     S
Ce121     Ti148    10.0   .     S
Ce123     Ce124    10.0   .     S
Ce123     Ce125    10.0   .     S
Ce123     Ti132    10.0   .     S
Ce124     Ce125    10.0   .     S
Ce126     Ce128    10.0   .     S
Ce126     Ce127    10.0   .     S
Ce126     Ti151    10.0   .     S
Ce127     Ce128    10.0   .     S
Ce127     Ti133    10.0   .     S
Ce129     Ce131    10.0   .     S
Ce129     Ce130    10.0   .     S
Ce129     Ti143    10.0   .     S
Ce130     Ce131    10.0   .     S
Ce130     Ti134    10.0   .     S
Ti132     Ti133    10.0   .     S
Ti132     Ti134    10.0   .     S
Ti133     Ti135    10.0   .     S
Ti134     Ti135    10.0   .     S
Ti135     Ce138    10.0   .     S
Ce136     Ce137    10.0   .     S
Ce136     Ce138    10.0   .     S
Ce136     Ti153    10.0   .     S
Ce137     Ce138    10.0   .     S
Ce137     Ti145    10.0   .     S
Ce139     Ce141    10.0   .     S
Ce139     Ce140    10.0   .     S
Ce139     Ti150    10.0   .     S
Ce140     Ce141    10.0   .     S
Ce140     Ti147    10.0   .     S
Ti142     Er192    10.0   .     S
Ti142     Ti143    10.0   1_455     S
Ti142     Ti144    10.0   .     S
Ti143     Er192    10.0   1_655     S
Ti143     Ti142    10.0   1_655     S
Ti143     Ti145    10.0   .     S
Ti144     Er192    10.0   .     S
Ti144     Ce155    10.0   .     S
Ti144     Ti145    10.0   1_455     S
Ti145     Er192    10.0   1_655     S
Ti145     Ti144    10.0   1_655     S
Ti146     Ti147    10.0   .     S
Ti146     Ti148    10.0   .     S
Ti147     Ti149    10.0   .     S
Ti148     Ti149    10.0   .     S
Ti149     Ce156    10.0   .     S
Ti150     Er168    10.0   .     S
Ti150     Ti151    10.0   1_455     S
Ti150     Ti152    10.0   .     S
Ti151     Er168    10.0   1_655     S
Ti151     Ti150    10.0   1_655     S
Ti151     Ti153    10.0   .     S
Ti152     Er168    10.0   .     S
Ti152     Ce154    10.0   .     S
Ti152     Ti153    10.0   1_455     S
Ti153     Er168    10.0   1_655     S
Ti153     Ti152    10.0   1_655     S
Ce154     Ce155    10.0   .     S
Ce154     Ce156    10.0   .     S
Ce155     Ce156    10.0   .     S
V157     Er158    10.0   .     S
V157     V162    10.0   1_554     S
V157     V160    10.0   1_455     S
V157     V167    10.0   .     S
V157     V165    10.0   .     S
Er158     Ti196    10.0   1_455     S
Er158     Ti197    10.0   1_454     S
Er158     Ti198    10.0   .     S
Er158     Ti199    10.0   1_554     S
Er159     Ti5    10.0   1_554     S
Er159     Ti7    10.0   1_554     S
Er159     V160    10.0   .     S
V160     V157    10.0   1_655     S
V160     V163    10.0   1_655     S
V160     V162    10.0   1_654     S
V160     V167    10.0   1_655     S
Er161     Ti117    10.0   1_455     S
Er161     Ti119    10.0   1_455     S
Er161     V162    10.0   .     S
V162     V157    10.0   1_556     S
V162     V165    10.0   1_556     S
V162     V163    10.0   1_556     S
V162     V160    10.0   1_456     S
V163     Er164    10.0   .     S
V163     V165    10.0   .     S
V163     V162    10.0   1_554     S
V163     V160    10.0   1_455     S
V163     V167    10.0   .     S
Er164     Ti226    10.0   1_454     S
Er164     Ti227    10.0   1_455     S
Er164     Ti228    10.0   .     S
Er164     Ti229    10.0   1_554     S
V165     Er166    10.0   .     S
V165     V162    10.0   1_554     S
V165     V167    10.0   .     S
Er166     Ti39    10.0   1_554     S
Er166     Ti41    10.0   1_554     S
V167     Er168    10.0   .     S
V167     V160    10.0   1_455     S
Er168     Ti151    10.0   1_455     S
Er168     Ti153    10.0   1_455     S
V169     Er170    10.0   .     S
V169     V174    10.0   1_554     S
V169     V172    10.0   1_545     S
V169     V179    10.0   .     S
V169     V177    10.0   .     S
Er170     Ti219    10.0   1_545     S
Er170     Ti220    10.0   1_544     S
Er170     Ti221    10.0   .     S
Er170     Ti222    10.0   1_554     S
Er171     Ti9    10.0   1_554     S
Er171     Ti11    10.0   1_554     S
Er171     V172    10.0   .     S
V172     V169    10.0   1_565     S
V172     V175    10.0   1_565     S
V172     V174    10.0   1_564     S
V172     V179    10.0   1_565     S
Er173     Ti57    10.0   1_545     S
Er173     Ti59    10.0   1_545     S
Er173     V174    10.0   .     S
V174     V169    10.0   1_556     S
V174     V177    10.0   1_556     S
V174     V175    10.0   1_556     S
V174     V172    10.0   1_546     S
V175     Er176    10.0   .     S
V175     V177    10.0   .     S
V175     V174    10.0   1_554     S
V175     V172    10.0   1_545     S
V175     V179    10.0   .     S
Er176     Ti230    10.0   1_545     S
Er176     Ti231    10.0   1_544     S
Er176     Ti232    10.0   .     S
Er176     Ti233    10.0   1_554     S
V177     Er178    10.0   .     S
V177     V174    10.0   1_554     S
V177     V179    10.0   .     S
Er178     Ti35    10.0   1_554     S
Er178     Ti37    10.0   1_554     S
V179     Er180    10.0   .     S
V179     V172    10.0   1_545     S
Er180     Ti87    10.0   1_545     S
Er180     Ti89    10.0   1_545     S
V181     Er182    10.0   .     S
V181     V186    10.0   1_545     S
V181     V184    10.0   1_455     S
V181     V189    10.0   .     S
V181     V191    10.0   .     S
Er182     Ti206    10.0   1_445     S
Er182     Ti207    10.0   1_545     S
Er182     Ti208    10.0   .     S
Er182     Ti209    10.0   1_455     S
Er183     Ti53    10.0   1_545     S
Er183     Ti55    10.0   1_545     S
Er183     V184    10.0   .     S
V184     V181    10.0   1_655     S
V184     V187    10.0   1_655     S
V184     V186    10.0   1_645     S
V184     V191    10.0   1_655     S
Er185     Ti113    10.0   1_455     S
Er185     Ti115    10.0   1_455     S
Er185     V186    10.0   .     S
V186     V181    10.0   1_565     S
V186     V189    10.0   1_565     S
V186     V187    10.0   1_565     S
V186     V184    10.0   1_465     S
V187     Er188    10.0   .     S
V187     V189    10.0   .     S
V187     V184    10.0   1_455     S
V187     V186    10.0   1_545     S
V187     V191    10.0   .     S
Er188     Ti234    10.0   1_445     S
Er188     Ti235    10.0   1_455     S
Er188     Ti236    10.0   .     S
Er188     Ti237    10.0   1_545     S
V189     Er190    10.0   .     S
V189     V186    10.0   1_545     S
V189     V191    10.0   .     S
Er190     Ti83    10.0   1_545     S
Er190     Ti85    10.0   1_545     S
V191     Er192    10.0   .     S
V191     V184    10.0   1_455     S
Er192     Ti143    10.0   1_455     S
Er192     Ti145    10.0   1_455     S
Ce193     Ce194    10.0   .     S
Ce193     Ce195    10.0   .     S
Ce193     Ti206    10.0   .     S
Ce194     Ce195    10.0   .     S
Ce194     Ti220    10.0   .     S
Ce195     Ti197    10.0   .     S
Ti196     Er158    10.0   1_655     S
Ti196     Ce218    10.0   .     S
Ti196     Ti198    10.0   1_655     S
Ti196     Ti197    10.0   1_554     S
Ti197     Er158    10.0   1_656     S
Ti197     Ti199    10.0   1_655     S
Ti197     Ti196    10.0   1_556     S
Ti198     Ti196    10.0   1_455     S
Ti198     Ce202    10.0   .     S
Ti198     Ti199    10.0   1_554     S
Ti199     Ti197    10.0   1_455     S
Ti199     Er158    10.0   1_556     S
Ti199     Ce205    10.0   .     S
Ti199     Ti198    10.0   1_556     S
Ce200     Ce201    10.0   .     S
Ce200     Ce202    10.0   .     S
Ce200     Ti237    10.0   .     S
Ce201     Ce202    10.0   .     S
Ce201     Ti230    10.0   .     S
Ce203     Ce204    10.0   .     S
Ce203     Ce205    10.0   .     S
Ce203     Ti207    10.0   .     S
Ce204     Ce205    10.0   .     S
Ce204     Ti231    10.0   .     S
Ti206     Er182    10.0   1_665     S
Ti206     Ti209    10.0   1_565     S
Ti206     Ti207    10.0   1_655     S
Ti207     Ti206    10.0   1_455     S
Ti207     Er182    10.0   1_565     S
Ti207     Ti208    10.0   1_565     S
Ti208     Ti207    10.0   1_545     S
Ti208     Ce212    10.0   .     S
Ti208     Ti209    10.0   1_455     S
Ti209     Ti206    10.0   1_545     S
Ti209     Er182    10.0   1_655     S
Ti209     Ce215    10.0   .     S
Ti209     Ti208    10.0   1_655     S
Ce210     Ce211    10.0   .     S
Ce210     Ce212    10.0   .     S
Ce210     Ti229    10.0   .     S
Ce211     Ce212    10.0   .     S
Ce211     Ti233    10.0   .     S
Ce213     Ce214    10.0   .     S
Ce213     Ce215    10.0   .     S
Ce213     Ti222    10.0   .     S
Ce214     Ce215    10.0   .     S
Ce214     Ti226    10.0   .     S
Ce216     Ce217    10.0   .     S
Ce216     Ce218    10.0   .     S
Ce216     Ti219    10.0   .     S
Ce217     Ce218    10.0   .     S
Ce217     Ti234    10.0   .     S
Ti219     Er170    10.0   1_565     S
Ti219     Ti221    10.0   1_565     S
Ti219     Ti220    10.0   1_554     S
Ti220     Er170    10.0   1_566     S
Ti220     Ti222    10.0   1_565     S
Ti220     Ti219    10.0   1_556     S
Ti221     Ti219    10.0   1_545     S
Ti221     Ce225    10.0   .     S
Ti221     Ti222    10.0   1_554     S
Ti222     Ti220    10.0   1_545     S
Ti222     Er170    10.0   1_556     S
Ti222     Ti221    10.0   1_556     S
Ce223     Ce224    10.0   .     S
Ce223     Ce225    10.0   .     S
Ce223     Ti235    10.0   .     S
Ce224     Ce225    10.0   .     S
Ce224     Ti227    10.0   .     S
Ti226     Er164    10.0   1_656     S
Ti226     Ti227    10.0   1_556     S
Ti226     Ti229    10.0   1_655     S
Ti227     Ti226    10.0   1_554     S
Ti227     Er164    10.0   1_655     S
Ti227     Ti228    10.0   1_655     S
Ti228     Ti227    10.0   1_455     S
Ti228     Ce239    10.0   .     S
Ti228     Ti229    10.0   1_554     S
Ti229     Ti226    10.0   1_455     S
Ti229     Er164    10.0   1_556     S
Ti229     Ti228    10.0   1_556     S
Ti230     Er176    10.0   1_565     S
Ti230     Ti232    10.0   1_565     S
Ti230     Ti231    10.0   1_554     S
Ti231     Er176    10.0   1_566     S
Ti231     Ti233    10.0   1_565     S
Ti231     Ti230    10.0   1_556     S
Ti232     Ti230    10.0   1_545     S
Ti232     Ce240    10.0   .     S
Ti232     Ti233    10.0   1_554     S
Ti233     Ti231    10.0   1_545     S
Ti233     Er176    10.0   1_556     S
Ti233     Ti232    10.0   1_556     S
Ti234     Er188    10.0   1_665     S
Ti234     Ti235    10.0   1_565     S
Ti234     Ti237    10.0   1_655     S
Ti235     Ti234    10.0   1_545     S
Ti235     Er188    10.0   1_655     S
Ti235     Ti236    10.0   1_655     S
Ti236     Ti235    10.0   1_455     S
Ti236     Ce238    10.0   .     S
Ti236     Ti237    10.0   1_545     S
Ti237     Ti234    10.0   1_455     S
Ti237     Er188    10.0   1_565     S
Ti237     Ti236    10.0   1_565     S
Ce238     Ce239    10.0   .     S
Ce238     Ce240    10.0   .     S
Ce239     Ce240    10.0   .     S
