data_ntxa
_audit_creation_date              2020-02-02
_audit_creation_method            'Pymatgen'
_symmetry_space_group_name_H-M    'P1'
_symmetry_Int_Tables_number       1
loop_
_symmetry_equiv_pos_as_xyz
  x,y,z
_cell_length_a                    150.1136
_cell_length_b                    150.1136
_cell_length_c                    150.1136
_cell_angle_alpha                 90.0
_cell_angle_beta                 90.0
_cell_angle_gamma                 90.0
loop_
_atom_site_label
_atom_site_type_symbol
_atom_site_fract_x
_atom_site_fract_y
_atom_site_fract_z
Ti1     Ti     0.6342   0.6812   0.087
Ti2     Ti     0.6812   0.6342   0.087
Er3     Er     0.7081   0.6632   0.0332
Er4     Er     0.7081   0.6632   0.9668
V5     V     0.749   0.7038   0.0
Ti6     Ti     0.6342   0.6812   0.913
Ti7     Ti     0.6812   0.6342   0.913
Er8     Er     0.6632   0.7081   0.0332
Er9     Er     0.6632   0.7081   0.9668
V10     V     0.7038   0.749   0.0
Ti11     Ti     0.8658   0.8188   0.087
Ti12     Ti     0.8188   0.8658   0.087
Er13     Er     0.8368   0.7919   0.0332
Er14     Er     0.8368   0.7919   0.9668
V15     V     0.7962   0.751   0.0
Ti16     Ti     0.8658   0.8188   0.913
Ti17     Ti     0.8188   0.8658   0.913
Er18     Er     0.7919   0.8368   0.0332
Er19     Er     0.7919   0.8368   0.9668
V20     V     0.751   0.7962   0.0
Ti21     Ti     0.6812   0.087   0.6342
Ti22     Ti     0.6342   0.087   0.6812
Er23     Er     0.6632   0.0332   0.7081
Er24     Er     0.6632   0.9668   0.7081
V25     V     0.7038   0.0   0.749
Ti26     Ti     0.6812   0.913   0.6342
Ti27     Ti     0.6342   0.913   0.6812
Er28     Er     0.7081   0.0332   0.6632
Er29     Er     0.7081   0.9668   0.6632
V30     V     0.749   0.0   0.7038
Ti31     Ti     0.8188   0.087   0.8658
Ti32     Ti     0.8658   0.087   0.8188
Er33     Er     0.7919   0.0332   0.8368
Er34     Er     0.7919   0.9668   0.8368
V35     V     0.751   0.0   0.7962
Ti36     Ti     0.8658   0.913   0.8188
Ti37     Ti     0.8188   0.913   0.8658
Er38     Er     0.8368   0.0332   0.7919
Er39     Er     0.8368   0.9668   0.7919
V40     V     0.7962   0.0   0.751
Ti41     Ti     0.087   0.6342   0.6812
Ti42     Ti     0.087   0.6812   0.6342
Er43     Er     0.0332   0.6632   0.7081
Er44     Er     0.9668   0.6632   0.7081
V45     V     0.0   0.7038   0.749
Ti46     Ti     0.913   0.6812   0.6342
Ti47     Ti     0.913   0.6342   0.6812
Er48     Er     0.0332   0.7081   0.6632
Er49     Er     0.9668   0.7081   0.6632
V50     V     0.0   0.749   0.7038
Ti51     Ti     0.087   0.8658   0.8188
Ti52     Ti     0.087   0.8188   0.8658
Er53     Er     0.0332   0.7919   0.8368
Er54     Er     0.9668   0.7919   0.8368
V55     V     0.0   0.751   0.7962
Ti56     Ti     0.913   0.8658   0.8188
Ti57     Ti     0.913   0.8188   0.8658
Er58     Er     0.0332   0.8368   0.7919
Er59     Er     0.9668   0.8368   0.7919
V60     V     0.0   0.7962   0.751
Er61     Er     0.4668   0.7081   0.8368
Er62     Er     0.5332   0.7081   0.8368
V63     V     0.5   0.749   0.7962
Ti64     Ti     0.413   0.6342   0.8188
Ti65     Ti     0.413   0.6812   0.8658
Ti66     Ti     0.587   0.6342   0.8188
Ti67     Ti     0.587   0.6812   0.8658
Er68     Er     0.4668   0.6632   0.7919
Er69     Er     0.5332   0.6632   0.7919
V70     V     0.5   0.7038   0.751
Er71     Er     0.4668   0.8368   0.7081
Er72     Er     0.5332   0.8368   0.7081
V73     V     0.5   0.7962   0.749
Ti74     Ti     0.413   0.8188   0.6342
Ti75     Ti     0.413   0.8658   0.6812
Ti76     Ti     0.587   0.8188   0.6342
Ti77     Ti     0.587   0.8658   0.6812
Er78     Er     0.4668   0.7919   0.6632
Er79     Er     0.5332   0.7919   0.6632
V80     V     0.5   0.751   0.7038
Ti81     Ti     0.6342   0.8188   0.413
Ti82     Ti     0.6812   0.8658   0.413
Er83     Er     0.7081   0.8368   0.4668
Er84     Er     0.7081   0.8368   0.5332
V85     V     0.749   0.7962   0.5
Ti86     Ti     0.6342   0.8188   0.587
Ti87     Ti     0.6812   0.8658   0.587
Er88     Er     0.6632   0.7919   0.4668
Er89     Er     0.6632   0.7919   0.5332
V90     V     0.7038   0.751   0.5
Er91     Er     0.8368   0.7081   0.4668
Er92     Er     0.8368   0.7081   0.5332
V93     V     0.7962   0.749   0.5
Ti94     Ti     0.8188   0.6342   0.413
Ti95     Ti     0.8658   0.6812   0.413
Ti96     Ti     0.8188   0.6342   0.587
Ti97     Ti     0.8658   0.6812   0.587
Er98     Er     0.7919   0.6632   0.4668
Er99     Er     0.7919   0.6632   0.5332
V100     V     0.751   0.7038   0.5
Er101     Er     0.7081   0.4668   0.8368
Er102     Er     0.7081   0.5332   0.8368
V103     V     0.749   0.5   0.7962
Ti104     Ti     0.6342   0.413   0.8188
Ti105     Ti     0.6812   0.413   0.8658
Ti106     Ti     0.6342   0.587   0.8188
Ti107     Ti     0.6812   0.587   0.8658
Er108     Er     0.6632   0.4668   0.7919
Er109     Er     0.6632   0.5332   0.7919
V110     V     0.7038   0.5   0.751
Er111     Er     0.8368   0.4668   0.7081
Er112     Er     0.8368   0.5332   0.7081
V113     V     0.7962   0.5   0.749
Ti114     Ti     0.8188   0.413   0.6342
Ti115     Ti     0.8658   0.413   0.6812
Ti116     Ti     0.8188   0.587   0.6342
Ti117     Ti     0.8658   0.587   0.6812
Er118     Er     0.7919   0.4668   0.6632
Er119     Er     0.7919   0.5332   0.6632
V120     V     0.751   0.5   0.7038
Ti121     Ti     0.413   0.3188   0.1342
Ti122     Ti     0.413   0.3658   0.1812
Er123     Er     0.4668   0.3368   0.2081
Er124     Er     0.5332   0.3368   0.2081
V125     V     0.5   0.2962   0.249
Ti126     Ti     0.587   0.3658   0.1812
Ti127     Ti     0.587   0.3188   0.1342
Er128     Er     0.4668   0.2919   0.1632
Er129     Er     0.5332   0.2919   0.1632
V130     V     0.5   0.251   0.2038
Ti131     Ti     0.413   0.1812   0.3658
Ti132     Ti     0.413   0.1342   0.3188
Er133     Er     0.4668   0.2081   0.3368
Er134     Er     0.5332   0.2081   0.3368
V135     V     0.5   0.249   0.2962
Ti136     Ti     0.587   0.1342   0.3188
Ti137     Ti     0.587   0.1812   0.3658
Er138     Er     0.4668   0.1632   0.2919
Er139     Er     0.5332   0.1632   0.2919
V140     V     0.5   0.2038   0.251
Ti141     Ti     0.3188   0.1342   0.413
Ti142     Ti     0.3658   0.1812   0.413
Er143     Er     0.3368   0.2081   0.4668
Er144     Er     0.3368   0.2081   0.5332
V145     V     0.2962   0.249   0.5
Ti146     Ti     0.3658   0.1812   0.587
Ti147     Ti     0.3188   0.1342   0.587
Er148     Er     0.2919   0.1632   0.4668
Er149     Er     0.2919   0.1632   0.5332
V150     V     0.251   0.2038   0.5
Ti151     Ti     0.1812   0.3658   0.413
Ti152     Ti     0.1342   0.3188   0.413
Er153     Er     0.2081   0.3368   0.4668
Er154     Er     0.2081   0.3368   0.5332
V155     V     0.249   0.2962   0.5
Ti156     Ti     0.1342   0.3188   0.587
Ti157     Ti     0.1812   0.3658   0.587
Er158     Er     0.1632   0.2919   0.4668
Er159     Er     0.1632   0.2919   0.5332
V160     V     0.2038   0.251   0.5
Ti161     Ti     0.3188   0.413   0.1342
Ti162     Ti     0.3658   0.413   0.1812
Er163     Er     0.3368   0.4668   0.2081
Er164     Er     0.3368   0.5332   0.2081
V165     V     0.2962   0.5   0.249
Ti166     Ti     0.3658   0.587   0.1812
Ti167     Ti     0.3188   0.587   0.1342
Er168     Er     0.2919   0.4668   0.1632
Er169     Er     0.2919   0.5332   0.1632
V170     V     0.251   0.5   0.2038
Ti171     Ti     0.1342   0.413   0.3188
Ti172     Ti     0.1812   0.413   0.3658
Er173     Er     0.2081   0.4668   0.3368
Er174     Er     0.2081   0.5332   0.3368
V175     V     0.249   0.5   0.2962
Ti176     Ti     0.1342   0.587   0.3188
Ti177     Ti     0.1812   0.587   0.3658
Er178     Er     0.1632   0.4668   0.2919
Er179     Er     0.1632   0.5332   0.2919
V180     V     0.2038   0.5   0.251
Ti181     Ti     0.1812   0.1342   0.087
Ti182     Ti     0.1342   0.1812   0.087
Er183     Er     0.2081   0.1632   0.0332
Er184     Er     0.2081   0.1632   0.9668
V185     V     0.249   0.2038   0.0
Ti186     Ti     0.1342   0.1812   0.913
Ti187     Ti     0.1812   0.1342   0.913
Er188     Er     0.1632   0.2081   0.0332
Er189     Er     0.1632   0.2081   0.9668
V190     V     0.2038   0.249   0.0
Ti191     Ti     0.3658   0.3188   0.087
Ti192     Ti     0.3188   0.3658   0.087
Er193     Er     0.3368   0.2919   0.0332
Er194     Er     0.3368   0.2919   0.9668
V195     V     0.2962   0.251   0.0
Ti196     Ti     0.3188   0.3658   0.913
Ti197     Ti     0.3658   0.3188   0.913
Er198     Er     0.2919   0.3368   0.0332
Er199     Er     0.2919   0.3368   0.9668
V200     V     0.251   0.2962   0.0
Ti201     Ti     0.1342   0.087   0.1812
Ti202     Ti     0.1812   0.087   0.1342
Er203     Er     0.1632   0.0332   0.2081
Er204     Er     0.1632   0.9668   0.2081
V205     V     0.2038   0.0   0.249
Ti206     Ti     0.1812   0.913   0.1342
Ti207     Ti     0.1342   0.913   0.1812
Er208     Er     0.2081   0.0332   0.1632
Er209     Er     0.2081   0.9668   0.1632
V210     V     0.249   0.0   0.2038
Ti211     Ti     0.3188   0.087   0.3658
Ti212     Ti     0.3658   0.087   0.3188
Er213     Er     0.3368   0.0332   0.2919
Er214     Er     0.3368   0.9668   0.2919
V215     V     0.2962   0.0   0.251
Ti216     Ti     0.3188   0.913   0.3658
Ti217     Ti     0.3658   0.913   0.3188
Er218     Er     0.2919   0.0332   0.3368
Er219     Er     0.2919   0.9668   0.3368
V220     V     0.251   0.0   0.2962
Ti221     Ti     0.087   0.1342   0.1812
Ti222     Ti     0.087   0.1812   0.1342
Er223     Er     0.0332   0.2081   0.1632
Er224     Er     0.9668   0.2081   0.1632
V225     V     0.0   0.249   0.2038
Ti226     Ti     0.913   0.1342   0.1812
Ti227     Ti     0.913   0.1812   0.1342
Er228     Er     0.0332   0.1632   0.2081
Er229     Er     0.9668   0.1632   0.2081
V230     V     0.0   0.2038   0.249
Ti231     Ti     0.087   0.3658   0.3188
Ti232     Ti     0.087   0.3188   0.3658
Er233     Er     0.0332   0.3368   0.2919
Er234     Er     0.9668   0.3368   0.2919
V235     V     0.0   0.2962   0.251
Ti236     Ti     0.913   0.3188   0.3658
Ti237     Ti     0.913   0.3658   0.3188
Er238     Er     0.0332   0.2919   0.3368
Er239     Er     0.9668   0.2919   0.3368
V240     V     0.0   0.251   0.2962
Ti241     Ti     0.8188   0.413   0.3658
Ti242     Ti     0.8658   0.413   0.3188
Er243     Er     0.7919   0.4668   0.3368
Er244     Er     0.7919   0.5332   0.3368
V245     V     0.751   0.5   0.2962
Ti246     Ti     0.8188   0.587   0.3658
Ti247     Ti     0.8658   0.587   0.3188
Er248     Er     0.8368   0.4668   0.2919
Er249     Er     0.8368   0.5332   0.2919
V250     V     0.7962   0.5   0.251
Er251     Er     0.7081   0.4668   0.1632
Er252     Er     0.7081   0.5332   0.1632
V253     V     0.749   0.5   0.2038
Ti254     Ti     0.6812   0.413   0.1342
Ti255     Ti     0.6342   0.413   0.1812
Ti256     Ti     0.6812   0.587   0.1342
Ti257     Ti     0.6342   0.587   0.1812
Er258     Er     0.6632   0.4668   0.2081
Er259     Er     0.6632   0.5332   0.2081
V260     V     0.7038   0.5   0.249
Er261     Er     0.7081   0.1632   0.4668
Er262     Er     0.7081   0.1632   0.5332
V263     V     0.749   0.2038   0.5
Ti264     Ti     0.6812   0.1342   0.413
Ti265     Ti     0.6342   0.1812   0.413
Ti266     Ti     0.6812   0.1342   0.587
Ti267     Ti     0.6342   0.1812   0.587
Er268     Er     0.6632   0.2081   0.4668
Er269     Er     0.6632   0.2081   0.5332
V270     V     0.7038   0.249   0.5
Ti271     Ti     0.8188   0.3658   0.413
Ti272     Ti     0.8658   0.3188   0.413
Er273     Er     0.7919   0.3368   0.4668
Er274     Er     0.7919   0.3368   0.5332
V275     V     0.751   0.2962   0.5
Ti276     Ti     0.8188   0.3658   0.587
Ti277     Ti     0.8658   0.3188   0.587
Er278     Er     0.8368   0.2919   0.4668
Er279     Er     0.8368   0.2919   0.5332
V280     V     0.7962   0.251   0.5
Ti281     Ti     0.413   0.3658   0.8188
Ti282     Ti     0.413   0.3188   0.8658
Er283     Er     0.4668   0.3368   0.7919
Er284     Er     0.5332   0.3368   0.7919
V285     V     0.5   0.2962   0.751
Ti286     Ti     0.587   0.3658   0.8188
Ti287     Ti     0.587   0.3188   0.8658
Er288     Er     0.4668   0.2919   0.8368
Er289     Er     0.5332   0.2919   0.8368
V290     V     0.5   0.251   0.7962
Er291     Er     0.4668   0.1632   0.7081
Er292     Er     0.5332   0.1632   0.7081
V293     V     0.5   0.2038   0.749
Ti294     Ti     0.413   0.1342   0.6812
Ti295     Ti     0.413   0.1812   0.6342
Ti296     Ti     0.587   0.1342   0.6812
Ti297     Ti     0.587   0.1812   0.6342
Er298     Er     0.4668   0.2081   0.6632
Er299     Er     0.5332   0.2081   0.6632
V300     V     0.5   0.249   0.7038
Er301     Er     0.1632   0.4668   0.7081
Er302     Er     0.1632   0.5332   0.7081
V303     V     0.2038   0.5   0.749
Ti304     Ti     0.1342   0.413   0.6812
Ti305     Ti     0.1812   0.413   0.6342
Ti306     Ti     0.1342   0.587   0.6812
Ti307     Ti     0.1812   0.587   0.6342
Er308     Er     0.2081   0.4668   0.6632
Er309     Er     0.2081   0.5332   0.6632
V310     V     0.249   0.5   0.7038
Ti311     Ti     0.3658   0.413   0.8188
Ti312     Ti     0.3188   0.413   0.8658
Er313     Er     0.3368   0.4668   0.7919
Er314     Er     0.3368   0.5332   0.7919
V315     V     0.2962   0.5   0.751
Ti316     Ti     0.3658   0.587   0.8188
Ti317     Ti     0.3188   0.587   0.8658
Er318     Er     0.2919   0.4668   0.8368
Er319     Er     0.2919   0.5332   0.8368
V320     V     0.251   0.5   0.7962
Ti321     Ti     0.8188   0.1342   0.087
Ti322     Ti     0.8658   0.1812   0.087
Er323     Er     0.8368   0.2081   0.0332
Er324     Er     0.8368   0.2081   0.9668
V325     V     0.7962   0.249   0.0
Ti326     Ti     0.8188   0.1342   0.913
Ti327     Ti     0.8658   0.1812   0.913
Er328     Er     0.7919   0.1632   0.0332
Er329     Er     0.7919   0.1632   0.9668
V330     V     0.751   0.2038   0.0
Er331     Er     0.7081   0.3368   0.0332
Er332     Er     0.7081   0.3368   0.9668
V333     V     0.749   0.2962   0.0
Ti334     Ti     0.6812   0.3658   0.087
Ti335     Ti     0.6342   0.3188   0.087
Ti336     Ti     0.6812   0.3658   0.913
Ti337     Ti     0.6342   0.3188   0.913
Er338     Er     0.6632   0.2919   0.0332
Er339     Er     0.6632   0.2919   0.9668
V340     V     0.7038   0.251   0.0
Ti341     Ti     0.087   0.1342   0.8188
Ti342     Ti     0.087   0.1812   0.8658
Er343     Er     0.0332   0.2081   0.8368
Er344     Er     0.9668   0.2081   0.8368
V345     V     0.0   0.249   0.7962
Ti346     Ti     0.913   0.1342   0.8188
Ti347     Ti     0.913   0.1812   0.8658
Er348     Er     0.0332   0.1632   0.7919
Er349     Er     0.9668   0.1632   0.7919
V350     V     0.0   0.2038   0.751
Er351     Er     0.0332   0.3368   0.7081
Er352     Er     0.9668   0.3368   0.7081
V353     V     0.0   0.2962   0.749
Ti354     Ti     0.087   0.3658   0.6812
Ti355     Ti     0.087   0.3188   0.6342
Ti356     Ti     0.913   0.3658   0.6812
Ti357     Ti     0.913   0.3188   0.6342
Er358     Er     0.0332   0.2919   0.6632
Er359     Er     0.9668   0.2919   0.6632
V360     V     0.0   0.251   0.7038
Ti361     Ti     0.1342   0.087   0.8188
Ti362     Ti     0.1812   0.087   0.8658
Er363     Er     0.2081   0.0332   0.8368
Er364     Er     0.2081   0.9668   0.8368
V365     V     0.249   0.0   0.7962
Ti366     Ti     0.1342   0.913   0.8188
Ti367     Ti     0.1812   0.913   0.8658
Er368     Er     0.1632   0.0332   0.7919
Er369     Er     0.1632   0.9668   0.7919
V370     V     0.2038   0.0   0.751
Er371     Er     0.3368   0.0332   0.7081
Er372     Er     0.3368   0.9668   0.7081
V373     V     0.2962   0.0   0.749
Ti374     Ti     0.3658   0.087   0.6812
Ti375     Ti     0.3188   0.087   0.6342
Ti376     Ti     0.3658   0.913   0.6812
Ti377     Ti     0.3188   0.913   0.6342
Er378     Er     0.2919   0.0332   0.6632
Er379     Er     0.2919   0.9668   0.6632
V380     V     0.251   0.0   0.7038
Er381     Er     0.3368   0.7081   0.0332
Er382     Er     0.3368   0.7081   0.9668
V383     V     0.2962   0.749   0.0
Ti384     Ti     0.3658   0.6812   0.087
Ti385     Ti     0.3188   0.6342   0.087
Ti386     Ti     0.3658   0.6812   0.913
Ti387     Ti     0.3188   0.6342   0.913
Er388     Er     0.2919   0.6632   0.0332
Er389     Er     0.2919   0.6632   0.9668
V390     V     0.251   0.7038   0.0
Ti391     Ti     0.1342   0.8188   0.087
Ti392     Ti     0.1812   0.8658   0.087
Er393     Er     0.2081   0.8368   0.0332
Er394     Er     0.2081   0.8368   0.9668
V395     V     0.249   0.7962   0.0
Ti396     Ti     0.1342   0.8188   0.913
Ti397     Ti     0.1812   0.8658   0.913
Er398     Er     0.1632   0.7919   0.0332
Er399     Er     0.1632   0.7919   0.9668
V400     V     0.2038   0.751   0.0
Ti401     Ti     0.413   0.8188   0.3658
Ti402     Ti     0.413   0.8658   0.3188
Er403     Er     0.4668   0.7919   0.3368
Er404     Er     0.5332   0.7919   0.3368
V405     V     0.5   0.751   0.2962
Ti406     Ti     0.587   0.8188   0.3658
Ti407     Ti     0.587   0.8658   0.3188
Er408     Er     0.4668   0.8368   0.2919
Er409     Er     0.5332   0.8368   0.2919
V410     V     0.5   0.7962   0.251
Er411     Er     0.4668   0.7081   0.1632
Er412     Er     0.5332   0.7081   0.1632
V413     V     0.5   0.749   0.2038
Ti414     Ti     0.413   0.6812   0.1342
Ti415     Ti     0.413   0.6342   0.1812
Ti416     Ti     0.587   0.6812   0.1342
Ti417     Ti     0.587   0.6342   0.1812
Er418     Er     0.4668   0.6632   0.2081
Er419     Er     0.5332   0.6632   0.2081
V420     V     0.5   0.7038   0.249
Er421     Er     0.1632   0.7081   0.4668
Er422     Er     0.1632   0.7081   0.5332
V423     V     0.2038   0.749   0.5
Ti424     Ti     0.1342   0.6812   0.413
Ti425     Ti     0.1812   0.6342   0.413
Ti426     Ti     0.1342   0.6812   0.587
Ti427     Ti     0.1812   0.6342   0.587
Er428     Er     0.2081   0.6632   0.4668
Er429     Er     0.2081   0.6632   0.5332
V430     V     0.249   0.7038   0.5
Ti431     Ti     0.3658   0.8188   0.413
Ti432     Ti     0.3188   0.8658   0.413
Er433     Er     0.3368   0.7919   0.4668
Er434     Er     0.3368   0.7919   0.5332
V435     V     0.2962   0.751   0.5
Ti436     Ti     0.3658   0.8188   0.587
Ti437     Ti     0.3188   0.8658   0.587
Er438     Er     0.2919   0.8368   0.4668
Er439     Er     0.2919   0.8368   0.5332
V440     V     0.251   0.7962   0.5
Ti441     Ti     0.8188   0.087   0.1342
Ti442     Ti     0.8658   0.087   0.1812
Er443     Er     0.8368   0.0332   0.2081
Er444     Er     0.8368   0.9668   0.2081
V445     V     0.7962   0.0   0.249
Ti446     Ti     0.8188   0.913   0.1342
Ti447     Ti     0.8658   0.913   0.1812
Er448     Er     0.7919   0.0332   0.1632
Er449     Er     0.7919   0.9668   0.1632
V450     V     0.751   0.0   0.2038
Er451     Er     0.7081   0.0332   0.3368
Er452     Er     0.7081   0.9668   0.3368
V453     V     0.749   0.0   0.2962
Ti454     Ti     0.6812   0.087   0.3658
Ti455     Ti     0.6342   0.087   0.3188
Ti456     Ti     0.6812   0.913   0.3658
Ti457     Ti     0.6342   0.913   0.3188
Er458     Er     0.6632   0.0332   0.2919
Er459     Er     0.6632   0.9668   0.2919
V460     V     0.7038   0.0   0.251
Er461     Er     0.0332   0.7081   0.3368
Er462     Er     0.9668   0.7081   0.3368
V463     V     0.0   0.749   0.2962
Ti464     Ti     0.087   0.6812   0.3658
Ti465     Ti     0.087   0.6342   0.3188
Ti466     Ti     0.913   0.6812   0.3658
Ti467     Ti     0.913   0.6342   0.3188
Er468     Er     0.0332   0.6632   0.2919
Er469     Er     0.9668   0.6632   0.2919
V470     V     0.0   0.7038   0.251
Ti471     Ti     0.087   0.8188   0.1342
Ti472     Ti     0.087   0.8658   0.1812
Er473     Er     0.0332   0.8368   0.2081
Er474     Er     0.9668   0.8368   0.2081
V475     V     0.0   0.7962   0.249
Ti476     Ti     0.913   0.8188   0.1342
Ti477     Ti     0.913   0.8658   0.1812
Er478     Er     0.0332   0.7919   0.1632
Er479     Er     0.9668   0.7919   0.1632
V480     V     0.0   0.751   0.2038
loop_
_geom_bond_atom_site_label_1
_geom_bond_atom_site_label_2
_geom_bond_distance
_geom_bond_site_symmetry_2
_ccdc_geom_bond_type
Ti1     Er8    10.015   .     S
Ti1     Ti416    10.024   .     S
Ti1     Ti2    9.98   .     S
Ti2     Er3    10.015   .     S
Ti2     Ti256    10.024   .     S
Er3     Er4    9.98   1_554     S
Er3     V5    9.989   .     S
Er4     Ti7    10.015   .     S
Er4     Er3    9.98   1_556     S
Er4     V5    9.989   1_556     S
V5     V15    10.02   .     S
V5     Er4    9.989   1_554     S
Ti6     Er9    10.015   .     S
Ti6     Ti67    10.024   .     S
Ti6     Ti7    9.98   .     S
Ti7     Ti107    10.024   .     S
Er8     Er9    9.98   1_554     S
Er8     V10    9.989   .     S
Er9     Er8    9.98   1_556     S
Er9     V10    9.989   1_556     S
V10     V20    10.02   .     S
V10     Er9    9.989   1_554     S
Ti11     Er13    10.015   .     S
Ti11     Ti476    10.024   .     S
Ti11     Ti12    9.98   .     S
Ti12     Er18    10.015   .     S
Ti12     Ti446    10.024   .     S
Er13     Er14    9.98   1_554     S
Er13     V15    9.989   .     S
Er14     Ti16    10.015   .     S
Er14     Er13    9.98   1_556     S
Er14     V15    9.989   1_556     S
V15     Er14    9.989   1_554     S
Ti16     Ti57    10.024   .     S
Ti16     Ti17    9.98   .     S
Ti17     Er19    10.015   .     S
Ti17     Ti37    10.024   .     S
Er18     Er19    9.98   1_554     S
Er18     V20    9.989   .     S
Er19     Er18    9.98   1_556     S
Er19     V20    9.989   1_556     S
V20     Er19    9.989   1_554     S
Ti21     Er28    10.015   .     S
Ti21     Ti266    10.024   .     S
Ti21     Ti22    9.98   .     S
Ti22     Er23    10.015   .     S
Ti22     Ti296    10.024   .     S
Er23     Er24    9.98   1_545     S
Er23     V25    9.989   .     S
Er24     Ti27    10.015   .     S
Er24     Er23    9.98   1_565     S
Er24     V25    9.989   1_565     S
V25     V35    10.02   .     S
V25     Er24    9.989   1_545     S
Ti26     Er29    10.015   .     S
Ti26     Ti87    10.024   .     S
Ti26     Ti27    9.98   .     S
Ti27     Ti77    10.024   .     S
Er28     Er29    9.98   1_545     S
Er28     V30    9.989   .     S
Er29     Er28    9.98   1_565     S
Er29     V30    9.989   1_565     S
V30     V40    10.02   .     S
V30     Er29    9.989   1_545     S
Ti31     Er33    10.015   .     S
Ti31     Ti326    10.024   .     S
Ti31     Ti32    9.98   .     S
Ti32     Er38    10.015   .     S
Ti32     Ti346    10.024   .     S
Er33     Er34    9.98   1_545     S
Er33     V35    9.989   .     S
Er34     Ti37    10.015   .     S
Er34     Er33    9.98   1_565     S
Er34     V35    9.989   1_565     S
V35     Er34    9.989   1_545     S
Ti36     Er39    10.015   .     S
Ti36     Ti56    10.024   .     S
Ti36     Ti37    9.98   .     S
Er38     Er39    9.98   1_545     S
Er38     V40    9.989   .     S
Er39     Er38    9.98   1_565     S
Er39     V40    9.989   1_565     S
V40     Er39    9.989   1_545     S
Ti41     Er43    10.015   .     S
Ti41     Ti306    10.024   .     S
Ti41     Ti42    9.98   .     S
Ti42     Er48    10.015   .     S
Ti42     Ti426    10.024   .     S
Er43     Er44    9.98   1_455     S
Er43     V45    9.989   .     S
Er44     Ti47    10.015   .     S
Er44     Er43    9.98   1_655     S
Er44     V45    9.989   1_655     S
V45     V55    10.02   .     S
V45     Er44    9.989   1_455     S
Ti46     Er49    10.015   .     S
Ti46     Ti97    10.024   .     S
Ti46     Ti47    9.98   .     S
Ti47     Ti117    10.024   .     S
Er48     Er49    9.98   1_455     S
Er48     V50    9.989   .     S
Er49     Er48    9.98   1_655     S
Er49     V50    9.989   1_655     S
V50     V60    10.02   .     S
V50     Er49    9.989   1_455     S
Ti51     Er58    10.015   .     S
Ti51     Ti366    10.024   .     S
Ti51     Ti52    9.98   .     S
Ti52     Er53    10.015   .     S
Ti52     Ti396    10.024   .     S
Er53     Er54    9.98   1_455     S
Er53     V55    9.989   .     S
Er54     Ti57    10.015   .     S
Er54     Er53    9.98   1_655     S
Er54     V55    9.989   1_655     S
V55     Er54    9.989   1_455     S
Ti56     Er59    10.015   .     S
Ti56     Ti57    9.98   .     S
Er58     Er59    9.98   1_455     S
Er58     V60    9.989   .     S
Er59     Er58    9.98   1_655     S
Er59     V60    9.989   1_655     S
V60     Er59    9.989   1_455     S
Er61     Ti65    10.015   .     S
Er61     Er62    9.98   .     S
Er61     V63    9.989   .     S
Er62     Ti67    10.015   .     S
Er62     V63    9.989   .     S
V63     V73    10.02   .     S
Ti64     Er68    10.015   .     S
Ti64     Ti316    10.024   .     S
Ti64     Ti65    9.98   .     S
Ti65     Ti386    10.024   .     S
Ti66     Er69    10.015   .     S
Ti66     Ti106    10.024   .     S
Ti66     Ti67    9.98   .     S
Er68     Er69    9.98   .     S
Er68     V70    9.989   .     S
Er69     V70    9.989   .     S
V70     V80    10.02   .     S
Er71     Ti75    10.015   .     S
Er71     Er72    9.98   .     S
Er71     V73    9.989   .     S
Er72     Ti77    10.015   .     S
Er72     V73    9.989   .     S
Ti74     Er78    10.015   .     S
Ti74     Ti436    10.024   .     S
Ti74     Ti75    9.98   .     S
Ti75     Ti376    10.024   .     S
Ti76     Er79    10.015   .     S
Ti76     Ti86    10.024   .     S
Ti76     Ti77    9.98   .     S
Er78     Er79    9.98   .     S
Er78     V80    9.989   .     S
Er79     V80    9.989   .     S
Ti81     Er88    10.015   .     S
Ti81     Ti406    10.024   .     S
Ti81     Ti82    9.98   .     S
Ti82     Er83    10.015   .     S
Ti82     Ti456    10.024   .     S
Er83     Er84    9.98   .     S
Er83     V85    9.989   .     S
Er84     Ti87    10.015   .     S
Er84     V85    9.989   .     S
V85     V93    10.02   .     S
Ti86     Er89    10.015   .     S
Ti86     Ti87    9.98   .     S
Er88     Er89    9.98   .     S
Er88     V90    9.989   .     S
Er89     V90    9.989   .     S
V90     V100    10.02   .     S
Er91     Ti95    10.015   .     S
Er91     Er92    9.98   .     S
Er91     V93    9.989   .     S
Er92     Ti97    10.015   .     S
Er92     V93    9.989   .     S
Ti94     Er98    10.015   .     S
Ti94     Ti246    10.024   .     S
Ti94     Ti95    9.98   .     S
Ti95     Ti466    10.024   .     S
Ti96     Er99    10.015   .     S
Ti96     Ti116    10.024   .     S
Ti96     Ti97    9.98   .     S
Er98     Er99    9.98   .     S
Er98     V100    9.989   .     S
Er99     V100    9.989   .     S
Er101     Ti105    10.015   .     S
Er101     Er102    9.98   .     S
Er101     V103    9.989   .     S
Er102     Ti107    10.015   .     S
Er102     V103    9.989   .     S
V103     V113    10.02   .     S
Ti104     Er108    10.015   .     S
Ti104     Ti286    10.024   .     S
Ti104     Ti105    9.98   .     S
Ti105     Ti336    10.024   .     S
Ti106     Er109    10.015   .     S
Ti106     Ti107    9.98   .     S
Er108     Er109    9.98   .     S
Er108     V110    9.989   .     S
Er109     V110    9.989   .     S
V110     V120    10.02   .     S
Er111     Ti115    10.015   .     S
Er111     Er112    9.98   .     S
Er111     V113    9.989   .     S
Er112     Ti117    10.015   .     S
Er112     V113    9.989   .     S
Ti114     Er118    10.015   .     S
Ti114     Ti276    10.024   .     S
Ti114     Ti115    9.98   .     S
Ti115     Ti356    10.024   .     S
Ti116     Er119    10.015   .     S
Ti116     Ti117    9.98   .     S
Er118     Er119    9.98   .     S
Er118     V120    9.989   .     S
Er119     V120    9.989   .     S
Ti121     Er128    10.015   .     S
Ti121     Ti191    10.024   .     S
Ti121     Ti122    9.98   .     S
Ti122     Er123    10.015   .     S
Ti122     Ti162    10.024   .     S
Er123     V125    9.989   .     S
Er123     Er124    9.98   .     S
Er124     Ti126    10.015   .     S
Er124     V125    9.989   .     S
V125     V135    10.02   .     S
Ti126     Ti255    10.024   .     S
Ti126     Ti127    9.98   .     S
Ti127     Er129    10.015   .     S
Ti127     Ti335    10.024   .     S
Er128     V130    9.989   .     S
Er128     Er129    9.98   .     S
Er129     V130    9.989   .     S
V130     V140    10.02   .     S
Ti131     Er133    10.015   .     S
Ti131     Ti142    10.024   .     S
Ti131     Ti132    9.98   .     S
Ti132     Er138    10.015   .     S
Ti132     Ti212    10.024   .     S
Er133     V135    9.989   .     S
Er133     Er134    9.98   .     S
Er134     Ti137    10.015   .     S
Er134     V135    9.989   .     S
Ti136     Er139    10.015   .     S
Ti136     Ti455    10.024   .     S
Ti136     Ti137    9.98   .     S
Ti137     Ti265    10.024   .     S
Er138     V140    9.989   .     S
Er138     Er139    9.98   .     S
Er139     V140    9.989   .     S
Ti141     Er148    10.015   .     S
Ti141     Ti211    10.024   .     S
Ti141     Ti142    9.98   .     S
Ti142     Er143    10.015   .     S
Er143     V145    9.989   .     S
Er143     Er144    9.98   .     S
Er144     Ti146    10.015   .     S
Er144     V145    9.989   .     S
V145     V155    10.02   .     S
Ti146     Ti295    10.024   .     S
Ti146     Ti147    9.98   .     S
Ti147     Er149    10.015   .     S
Ti147     Ti375    10.024   .     S
Er148     V150    9.989   .     S
Er148     Er149    9.98   .     S
Er149     V150    9.989   .     S
V150     V160    10.02   .     S
Ti151     Er153    10.015   .     S
Ti151     Ti172    10.024   .     S
Ti151     Ti152    9.98   .     S
Ti152     Er158    10.015   .     S
Ti152     Ti232    10.024   .     S
Er153     V155    9.989   .     S
Er153     Er154    9.98   .     S
Er154     Ti157    10.015   .     S
Er154     V155    9.989   .     S
Ti156     Er159    10.015   .     S
Ti156     Ti355    10.024   .     S
Ti156     Ti157    9.98   .     S
Ti157     Ti305    10.024   .     S
Er158     V160    9.989   .     S
Er158     Er159    9.98   .     S
Er159     V160    9.989   .     S
Ti161     Er168    10.015   .     S
Ti161     Ti192    10.024   .     S
Ti161     Ti162    9.98   .     S
Ti162     Er163    10.015   .     S
Er163     V165    9.989   .     S
Er163     Er164    9.98   .     S
Er164     Ti166    10.015   .     S
Er164     V165    9.989   .     S
V165     V175    10.02   .     S
Ti166     Ti415    10.024   .     S
Ti166     Ti167    9.98   .     S
Ti167     Er169    10.015   .     S
Ti167     Ti385    10.024   .     S
Er168     V170    9.989   .     S
Er168     Er169    9.98   .     S
Er169     V170    9.989   .     S
V170     V180    10.02   .     S
Ti171     Er178    10.015   .     S
Ti171     Ti231    10.024   .     S
Ti171     Ti172    9.98   .     S
Ti172     Er173    10.015   .     S
Er173     V175    9.989   .     S
Er173     Er174    9.98   .     S
Er174     Ti177    10.015   .     S
Er174     V175    9.989   .     S
Ti176     Er179    10.015   .     S
Ti176     Ti465    10.024   .     S
Ti176     Ti177    9.98   .     S
Ti177     Ti425    10.024   .     S
Er178     V180    9.989   .     S
Er178     Er179    9.98   .     S
Er179     V180    9.989   .     S
Ti181     Er183    10.015   .     S
Ti181     Ti202    10.024   .     S
Ti181     Ti182    9.98   .     S
Ti182     Er188    10.015   .     S
Ti182     Ti222    10.024   .     S
Er183     Er184    9.98   1_554     S
Er183     V185    9.989   .     S
Er184     Ti187    10.015   .     S
Er184     Er183    9.98   1_556     S
Er184     V185    9.989   1_556     S
V185     V195    10.02   .     S
V185     Er184    9.989   1_554     S
Ti186     Er189    10.015   .     S
Ti186     Ti342    10.024   .     S
Ti186     Ti187    9.98   .     S
Ti187     Ti362    10.024   .     S
Er188     Er189    9.98   1_554     S
Er188     V190    9.989   .     S
Er189     Er188    9.98   1_556     S
Er189     V190    9.989   1_556     S
V190     V200    10.02   .     S
V190     Er189    9.989   1_554     S
Ti191     Er193    10.015   .     S
Ti191     Ti192    9.98   .     S
Ti192     Er198    10.015   .     S
Er193     Er194    9.98   1_554     S
Er193     V195    9.989   .     S
Er194     Ti197    10.015   .     S
Er194     Er193    9.98   1_556     S
Er194     V195    9.989   1_556     S
V195     Er194    9.989   1_554     S
Ti196     Er199    10.015   .     S
Ti196     Ti312    10.024   .     S
Ti196     Ti197    9.98   .     S
Ti197     Ti282    10.024   .     S
Er198     V200    9.989   .     S
Er198     Er199    9.98   1_554     S
Er199     V200    9.989   1_556     S
Er199     Er198    9.98   1_556     S
V200     Er199    9.989   1_554     S
Ti201     Er203    10.015   .     S
Ti201     Ti221    10.024   .     S
Ti201     Ti202    9.98   .     S
Ti202     Er208    10.015   .     S
Er203     Er204    9.98   1_545     S
Er203     V205    9.989   .     S
Er204     Ti207    10.015   .     S
Er204     Er203    9.98   1_565     S
Er204     V205    9.989   1_565     S
V205     V220    10.02   .     S
V205     Er204    9.989   1_545     S
Ti206     Er209    10.015   .     S
Ti206     Ti392    10.024   .     S
Ti206     Ti207    9.98   .     S
Ti207     Ti472    10.024   .     S
Er208     Er209    9.98   1_545     S
Er208     V210    9.989   .     S
Er209     Er208    9.98   1_565     S
Er209     V210    9.989   1_565     S
V210     V215    10.02   .     S
V210     Er209    9.989   1_545     S
Ti211     Er218    10.015   .     S
Ti211     Ti212    9.98   .     S
Ti212     Er213    10.015   .     S
Er213     Er214    9.98   1_545     S
Er213     V215    9.989   .     S
Er214     Ti217    10.015   .     S
Er214     Er213    9.98   1_565     S
Er214     V215    9.989   1_565     S
V215     Er214    9.989   1_545     S
Ti216     Er219    10.015   .     S
Ti216     Ti432    10.024   .     S
Ti216     Ti217    9.98   .     S
Ti217     Ti402    10.024   .     S
Er218     V220    9.989   .     S
Er218     Er219    9.98   1_545     S
Er219     V220    9.989   1_565     S
Er219     Er218    9.98   1_565     S
V220     Er219    9.989   1_545     S
Ti221     Er228    10.015   .     S
Ti221     Ti222    9.98   .     S
Ti222     Er223    10.015   .     S
Er223     Er224    9.98   1_455     S
Er223     V225    9.989   .     S
Er224     Ti227    10.015   .     S
Er224     Er223    9.98   1_655     S
Er224     V225    9.989   1_655     S
V225     V235    10.02   .     S
V225     Er224    9.989   1_455     S
Ti226     Er229    10.015   .     S
Ti226     Ti442    10.024   .     S
Ti226     Ti227    9.98   .     S
Ti227     Ti322    10.024   .     S
Er228     V230    9.989   .     S
Er228     Er229    9.98   1_455     S
Er229     V230    9.989   1_655     S
Er229     Er228    9.98   1_655     S
V230     V240    10.02   .     S
V230     Er229    9.989   1_455     S
Ti231     Er233    10.015   .     S
Ti231     Ti232    9.98   .     S
Ti232     Er238    10.015   .     S
Er233     Er234    9.98   1_455     S
Er233     V235    9.989   .     S
Er234     Ti237    10.015   .     S
Er234     Er233    9.98   1_655     S
Er234     V235    9.989   1_655     S
V235     Er234    9.989   1_455     S
Ti236     Er239    10.015   .     S
Ti236     Ti272    10.024   .     S
Ti236     Ti237    9.98   .     S
Ti237     Ti242    10.024   .     S
Er238     V240    9.989   .     S
Er238     Er239    9.98   1_455     S
Er239     V240    9.989   1_655     S
Er239     Er238    9.98   1_655     S
V240     Er239    9.989   1_455     S
Ti241     Er243    10.015   .     S
Ti241     Ti271    10.024   .     S
Ti241     Ti242    9.98   .     S
Ti242     Er248    10.015   .     S
Er243     Er244    9.98   .     S
Er243     V245    9.989   .     S
Er244     Ti246    10.015   .     S
Er244     V245    9.989   .     S
V245     V260    10.02   .     S
Ti246     Ti247    9.98   .     S
Ti247     Er249    10.015   .     S
Ti247     Ti467    10.024   .     S
Er248     V250    9.989   .     S
Er248     Er249    9.98   .     S
Er249     V250    9.989   .     S
V250     V253    10.02   .     S
Er251     Ti254    10.015   .     S
Er251     Er252    9.98   .     S
Er251     V253    9.989   .     S
Er252     Ti256    10.015   .     S
Er252     V253    9.989   .     S
Ti254     Ti334    10.024   .     S
Ti254     Ti255    9.98   .     S
Ti255     Er258    10.015   .     S
Ti256     Ti257    9.98   .     S
Ti257     Er259    10.015   .     S
Ti257     Ti417    10.024   .     S
Er258     Er259    9.98   .     S
Er258     V260    9.989   .     S
Er259     V260    9.989   .     S
Er261     Ti264    10.015   .     S
Er261     Er262    9.98   .     S
Er261     V263    9.989   .     S
Er262     Ti266    10.015   .     S
Er262     V263    9.989   .     S
V263     V280    10.02   .     S
Ti264     Ti454    10.024   .     S
Ti264     Ti265    9.98   .     S
Ti265     Er268    10.015   .     S
Ti266     Ti267    9.98   .     S
Ti267     Er269    10.015   .     S
Ti267     Ti297    10.024   .     S
Er268     Er269    9.98   .     S
Er268     V270    9.989   .     S
Er269     V270    9.989   .     S
V270     V275    10.02   .     S
Ti271     Er273    10.015   .     S
Ti271     Ti272    9.98   .     S
Ti272     Er278    10.015   .     S
Er273     Er274    9.98   .     S
Er273     V275    9.989   .     S
Er274     Ti276    10.015   .     S
Er274     V275    9.989   .     S
Ti276     Ti277    9.98   .     S
Ti277     Er279    10.015   .     S
Ti277     Ti357    10.024   .     S
Er278     V280    9.989   .     S
Er278     Er279    9.98   .     S
Er279     V280    9.989   .     S
Ti281     Er283    10.015   .     S
Ti281     Ti311    10.024   .     S
Ti281     Ti282    9.98   .     S
Ti282     Er288    10.015   .     S
Er283     Er284    9.98   .     S
Er283     V285    9.989   .     S
Er284     Ti286    10.015   .     S
Er284     V285    9.989   .     S
V285     V300    10.02   .     S
Ti286     Ti287    9.98   .     S
Ti287     Er289    10.015   .     S
Ti287     Ti337    10.024   .     S
Er288     V290    9.989   .     S
Er288     Er289    9.98   .     S
Er289     V290    9.989   .     S
V290     V293    10.02   .     S
Er291     Ti294    10.015   .     S
Er291     Er292    9.98   .     S
Er291     V293    9.989   .     S
Er292     Ti296    10.015   .     S
Er292     V293    9.989   .     S
Ti294     Ti374    10.024   .     S
Ti294     Ti295    9.98   .     S
Ti295     Er298    10.015   .     S
Ti296     Ti297    9.98   .     S
Ti297     Er299    10.015   .     S
Er298     Er299    9.98   .     S
Er298     V300    9.989   .     S
Er299     V300    9.989   .     S
Er301     Ti304    10.015   .     S
Er301     Er302    9.98   .     S
Er301     V303    9.989   .     S
Er302     Ti306    10.015   .     S
Er302     V303    9.989   .     S
V303     V320    10.02   .     S
Ti304     Ti354    10.024   .     S
Ti304     Ti305    9.98   .     S
Ti305     Er308    10.015   .     S
Ti306     Ti307    9.98   .     S
Ti307     Er309    10.015   .     S
Ti307     Ti427    10.024   .     S
Er308     Er309    9.98   .     S
Er308     V310    9.989   .     S
Er309     V310    9.989   .     S
V310     V315    10.02   .     S
Ti311     Er313    10.015   .     S
Ti311     Ti312    9.98   .     S
Ti312     Er318    10.015   .     S
Er313     Er314    9.98   .     S
Er313     V315    9.989   .     S
Er314     Ti316    10.015   .     S
Er314     V315    9.989   .     S
Ti316     Ti317    9.98   .     S
Ti317     Er319    10.015   .     S
Ti317     Ti387    10.024   .     S
Er318     V320    9.989   .     S
Er318     Er319    9.98   .     S
Er319     V320    9.989   .     S
Ti321     Er328    10.015   .     S
Ti321     Ti441    10.024   .     S
Ti321     Ti322    9.98   .     S
Ti322     Er323    10.015   .     S
Er323     Er324    9.98   1_554     S
Er323     V325    9.989   .     S
Er324     Ti327    10.015   .     S
Er324     Er323    9.98   1_556     S
Er324     V325    9.989   1_556     S
V325     V333    10.02   .     S
V325     Er324    9.989   1_554     S
Ti326     Er329    10.015   .     S
Ti326     Ti327    9.98   .     S
Ti327     Ti347    10.024   .     S
Er328     Er329    9.98   1_554     S
Er328     V330    9.989   .     S
Er329     Er328    9.98   1_556     S
Er329     V330    9.989   1_556     S
V330     V340    10.02   .     S
V330     Er329    9.989   1_554     S
Er331     Ti334    10.015   .     S
Er331     Er332    9.98   1_554     S
Er331     V333    9.989   .     S
Er332     Ti336    10.015   .     S
Er332     Er331    9.98   1_556     S
Er332     V333    9.989   1_556     S
V333     Er332    9.989   1_554     S
Ti334     Ti335    9.98   .     S
Ti335     Er338    10.015   .     S
Ti336     Ti337    9.98   .     S
Ti337     Er339    10.015   .     S
Er338     Er339    9.98   1_554     S
Er338     V340    9.989   .     S
Er339     Er338    9.98   1_556     S
Er339     V340    9.989   1_556     S
V340     Er339    9.989   1_554     S
Ti341     Er348    10.015   .     S
Ti341     Ti361    10.024   .     S
Ti341     Ti342    9.98   .     S
Ti342     Er343    10.015   .     S
Er343     Er344    9.98   1_455     S
Er343     V345    9.989   .     S
Er344     Ti347    10.015   .     S
Er344     Er343    9.98   1_655     S
Er344     V345    9.989   1_655     S
V345     V353    10.02   .     S
V345     Er344    9.989   1_455     S
Ti346     Er349    10.015   .     S
Ti346     Ti347    9.98   .     S
Er348     Er349    9.98   1_455     S
Er348     V350    9.989   .     S
Er349     Er348    9.98   1_655     S
Er349     V350    9.989   1_655     S
V350     V360    10.02   .     S
V350     Er349    9.989   1_455     S
Er351     Ti354    10.015   .     S
Er351     Er352    9.98   1_455     S
Er351     V353    9.989   .     S
Er352     Ti356    10.015   .     S
Er352     Er351    9.98   1_655     S
Er352     V353    9.989   1_655     S
V353     Er352    9.989   1_455     S
Ti354     Ti355    9.98   .     S
Ti355     Er358    10.015   .     S
Ti356     Ti357    9.98   .     S
Ti357     Er359    10.015   .     S
Er358     Er359    9.98   1_455     S
Er358     V360    9.989   .     S
Er359     Er358    9.98   1_655     S
Er359     V360    9.989   1_655     S
V360     Er359    9.989   1_455     S
Ti361     Er368    10.015   .     S
Ti361     Ti362    9.98   .     S
Ti362     Er363    10.015   .     S
Er363     Er364    9.98   1_545     S
Er363     V365    9.989   .     S
Er364     Ti367    10.015   .     S
Er364     Er363    9.98   1_565     S
Er364     V365    9.989   1_565     S
V365     V373    10.02   .     S
V365     Er364    9.989   1_545     S
Ti366     Er369    10.015   .     S
Ti366     Ti367    9.98   .     S
Ti367     Ti397    10.024   .     S
Er368     Er369    9.98   1_545     S
Er368     V370    9.989   .     S
Er369     Er368    9.98   1_565     S
Er369     V370    9.989   1_565     S
V370     V380    10.02   .     S
V370     Er369    9.989   1_545     S
Er371     Ti374    10.015   .     S
Er371     Er372    9.98   1_545     S
Er371     V373    9.989   .     S
Er372     Ti376    10.015   .     S
Er372     Er371    9.98   1_565     S
Er372     V373    9.989   1_565     S
V373     Er372    9.989   1_545     S
Ti374     Ti375    9.98   .     S
Ti375     Er378    10.015   .     S
Ti376     Ti377    9.98   .     S
Ti377     Er379    10.015   .     S
Ti377     Ti437    10.024   .     S
Er378     Er379    9.98   1_545     S
Er378     V380    9.989   .     S
Er379     Er378    9.98   1_565     S
Er379     V380    9.989   1_565     S
V380     Er379    9.989   1_545     S
Er381     Ti384    10.015   .     S
Er381     Er382    9.98   1_554     S
Er381     V383    9.989   .     S
Er382     Ti386    10.015   .     S
Er382     Er381    9.98   1_556     S
Er382     V383    9.989   1_556     S
V383     V395    10.02   .     S
V383     Er382    9.989   1_554     S
Ti384     Ti414    10.024   .     S
Ti384     Ti385    9.98   .     S
Ti385     Er388    10.015   .     S
Ti386     Ti387    9.98   .     S
Ti387     Er389    10.015   .     S
Er388     Er389    9.98   1_554     S
Er388     V390    9.989   .     S
Er389     Er388    9.98   1_556     S
Er389     V390    9.989   1_556     S
V390     V400    10.02   .     S
V390     Er389    9.989   1_554     S
Ti391     Er398    10.015   .     S
Ti391     Ti471    10.024   .     S
Ti391     Ti392    9.98   .     S
Ti392     Er393    10.015   .     S
Er393     Er394    9.98   1_554     S
Er393     V395    9.989   .     S
Er394     Ti397    10.015   .     S
Er394     Er393    9.98   1_556     S
Er394     V395    9.989   1_556     S
V395     Er394    9.989   1_554     S
Ti396     Er399    10.015   .     S
Ti396     Ti397    9.98   .     S
Er398     Er399    9.98   1_554     S
Er398     V400    9.989   .     S
Er399     Er398    9.98   1_556     S
Er399     V400    9.989   1_556     S
V400     Er399    9.989   1_554     S
Ti401     Er403    10.015   .     S
Ti401     Ti431    10.024   .     S
Ti401     Ti402    9.98   .     S
Ti402     Er408    10.015   .     S
Er403     Er404    9.98   .     S
Er403     V405    9.989   .     S
Er404     Ti406    10.015   .     S
Er404     V405    9.989   .     S
V405     V420    10.02   .     S
Ti406     Ti407    9.98   .     S
Ti407     Er409    10.015   .     S
Ti407     Ti457    10.024   .     S
Er408     V410    9.989   .     S
Er408     Er409    9.98   .     S
Er409     V410    9.989   .     S
V410     V413    10.02   .     S
Er411     Ti414    10.015   .     S
Er411     Er412    9.98   .     S
Er411     V413    9.989   .     S
Er412     Ti416    10.015   .     S
Er412     V413    9.989   .     S
Ti414     Ti415    9.98   .     S
Ti415     Er418    10.015   .     S
Ti416     Ti417    9.98   .     S
Ti417     Er419    10.015   .     S
Er418     Er419    9.98   .     S
Er418     V420    9.989   .     S
Er419     V420    9.989   .     S
Er421     Ti424    10.015   .     S
Er421     Er422    9.98   .     S
Er421     V423    9.989   .     S
Er422     Ti426    10.015   .     S
Er422     V423    9.989   .     S
V423     V440    10.02   .     S
Ti424     Ti464    10.024   .     S
Ti424     Ti425    9.98   .     S
Ti425     Er428    10.015   .     S
Ti426     Ti427    9.98   .     S
Ti427     Er429    10.015   .     S
Er428     Er429    9.98   .     S
Er428     V430    9.989   .     S
Er429     V430    9.989   .     S
V430     V435    10.02   .     S
Ti431     Er433    10.015   .     S
Ti431     Ti432    9.98   .     S
Ti432     Er438    10.015   .     S
Er433     Er434    9.98   .     S
Er433     V435    9.989   .     S
Er434     Ti436    10.015   .     S
Er434     V435    9.989   .     S
Ti436     Ti437    9.98   .     S
Ti437     Er439    10.015   .     S
Er438     V440    9.989   .     S
Er438     Er439    9.98   .     S
Er439     V440    9.989   .     S
Ti441     Er448    10.015   .     S
Ti441     Ti442    9.98   .     S
Ti442     Er443    10.015   .     S
Er443     Er444    9.98   1_545     S
Er443     V445    9.989   .     S
Er444     Ti447    10.015   .     S
Er444     Er443    9.98   1_565     S
Er444     V445    9.989   1_565     S
V445     V453    10.02   .     S
V445     Er444    9.989   1_545     S
Ti446     Er449    10.015   .     S
Ti446     Ti447    9.98   .     S
Ti447     Ti477    10.024   .     S
Er448     Er449    9.98   1_545     S
Er448     V450    9.989   .     S
Er449     Er448    9.98   1_565     S
Er449     V450    9.989   1_565     S
V450     V460    10.02   .     S
V450     Er449    9.989   1_545     S
Er451     Ti454    10.015   .     S
Er451     Er452    9.98   1_545     S
Er451     V453    9.989   .     S
Er452     Ti456    10.015   .     S
Er452     Er451    9.98   1_565     S
Er452     V453    9.989   1_565     S
V453     Er452    9.989   1_545     S
Ti454     Ti455    9.98   .     S
Ti455     Er458    10.015   .     S
Ti456     Ti457    9.98   .     S
Ti457     Er459    10.015   .     S
Er458     Er459    9.98   1_545     S
Er458     V460    9.989   .     S
Er459     Er458    9.98   1_565     S
Er459     V460    9.989   1_565     S
V460     Er459    9.989   1_545     S
Er461     Ti464    10.015   .     S
Er461     Er462    9.98   1_455     S
Er461     V463    9.989   .     S
Er462     Ti466    10.015   .     S
Er462     Er461    9.98   1_655     S
Er462     V463    9.989   1_655     S
V463     V475    10.02   .     S
V463     Er462    9.989   1_455     S
Ti464     Ti465    9.98   .     S
Ti465     Er468    10.015   .     S
Ti466     Ti467    9.98   .     S
Ti467     Er469    10.015   .     S
Er468     Er469    9.98   1_455     S
Er468     V470    9.989   .     S
Er469     Er468    9.98   1_655     S
Er469     V470    9.989   1_655     S
V470     V480    10.02   .     S
V470     Er469    9.989   1_455     S
Ti471     Er478    10.015   .     S
Ti471     Ti472    9.98   .     S
Ti472     Er473    10.015   .     S
Er473     Er474    9.98   1_455     S
Er473     V475    9.989   .     S
Er474     Ti477    10.015   .     S
Er474     Er473    9.98   1_655     S
Er474     V475    9.989   1_655     S
V475     Er474    9.989   1_455     S
Ti476     Er479    10.015   .     S
Ti476     Ti477    9.98   .     S
Er478     Er479    9.98   1_455     S
Er478     V480    9.989   .     S
Er479     Er478    9.98   1_655     S
Er479     V480    9.989   1_655     S
V480     Er479    9.989   1_455     S
