data_odm
_audit_creation_date              2020-02-02
_audit_creation_method            'Pymatgen'
_symmetry_space_group_name_H-M    'P1'
_symmetry_Int_Tables_number       1
loop_
_symmetry_equiv_pos_as_xyz
  x,y,z
_cell_length_a                    147.0295
_cell_length_b                    147.0295
_cell_length_c                    28.7864
_cell_angle_alpha                 90.0
_cell_angle_beta                 90.0
_cell_angle_gamma                 120.0
loop_
_atom_site_label
_atom_site_type_symbol
_atom_site_fract_x
_atom_site_fract_y
_atom_site_fract_z
H1     H     0.5908   0.2778   0.8324
H2     H     0.7222   0.313   0.8324
H3     H     0.6463   0.2575   0.8343
H4     H     0.687   0.4092   0.8324
H5     H     0.7425   0.3889   0.8343
H6     H     0.6111   0.3537   0.8343
H7     H     0.3889   0.6463   0.1657
H8     H     0.2575   0.6111   0.1657
H9     H     0.313   0.5908   0.1676
H10     H     0.2778   0.687   0.1676
H11     H     0.3537   0.7425   0.1657
H12     H     0.4092   0.7222   0.1676
H13     H     0.7425   0.3537   0.3343
H14     H     0.687   0.2778   0.3324
H15     H     0.6111   0.2575   0.3343
H16     H     0.6463   0.3889   0.3343
H17     H     0.7222   0.4092   0.3324
H18     H     0.5908   0.313   0.3324
H19     H     0.9445   0.9241   0.0009
H20     H     0.0203   0.9445   0.9991
H21     H     0.9797   0.0555   0.0009
H22     H     0.0759   0.0203   0.0009
H23     H     0.0555   0.0759   0.9991
H24     H     0.9241   0.9797   0.9991
H25     H     0.0203   0.0759   0.4991
H26     H     0.0759   0.0555   0.5009
H27     H     0.9445   0.0203   0.5009
H28     H     0.9241   0.9445   0.4991
H29     H     0.0555   0.9797   0.4991
H30     H     0.9797   0.9241   0.5009
H31     H     0.2778   0.5908   0.6676
H32     H     0.2575   0.6463   0.6657
H33     H     0.313   0.7222   0.6676
H34     H     0.4092   0.687   0.6676
H35     H     0.3889   0.7425   0.6657
H36     H     0.3537   0.6111   0.6657
Be37     Be     0.2318   0.2318   0.25
Be38     Be     0.3333   0.4349   0.9167
Be39     Be     0.4349   0.3333   0.5833
Ti40     Ti     0.2211   0.2211   0.75
Ti41     Ti     0.4456   0.3333   0.0833
Ti42     Ti     0.3333   0.4456   0.4167
Ce43     Ce     0.3444   0.3444   0.25
Ce44     Ce     0.3223   0.3333   0.5833
Ce45     Ce     0.3333   0.3223   0.9167
S46     S     0.28   0.2472   0.9793
S47     S     0.2472   0.28   0.5207
S48     S     0.4194   0.3661   0.3126
S49     S     0.3661   0.4194   0.1874
S50     S     0.3867   0.3006   0.8541
S51     S     0.3006   0.3867   0.6459
Be52     Be     0.3333   0.8984   0.4167
Be53     Be     0.2318   0.0   0.75
Be54     Be     0.4349   0.1016   0.0833
Ti55     Ti     0.4456   0.1122   0.5833
Ti56     Ti     0.3333   0.8878   0.9167
Ti57     Ti     0.2211   0.0   0.25
Ce58     Ce     0.3333   0.0111   0.4167
Ce59     Ce     0.3444   0.0   0.75
Ce60     Ce     0.3223   0.9889   0.0833
S61     S     0.3006   0.9139   0.1459
S62     S     0.3661   0.9466   0.6874
S63     S     0.28   0.0327   0.4793
S64     S     0.3867   0.0861   0.3541
S65     S     0.4194   0.0534   0.8126
S66     S     0.2472   0.9673   0.0207
Be67     Be     0.6667   0.1016   0.5833
Be68     Be     0.5651   0.8984   0.9167
Be69     Be     0.7682   0.0   0.25
Ti70     Ti     0.6667   0.1122   0.0833
Ti71     Ti     0.5544   0.8878   0.4167
Ti72     Ti     0.7789   0.0   0.75
Ce73     Ce     0.6777   0.0111   0.9167
Ce74     Ce     0.6556   0.0   0.25
Ce75     Ce     0.6667   0.9889   0.5833
S76     S     0.6994   0.0861   0.8541
S77     S     0.72   0.9673   0.5207
S78     S     0.6339   0.0534   0.3126
S79     S     0.6133   0.9139   0.6459
S80     S     0.5806   0.9466   0.1874
S81     S     0.7528   0.0327   0.9793
Be82     Be     0.1016   0.4349   0.4167
Be83     Be     0.8984   0.3333   0.0833
Be84     Be     0.0   0.2318   0.75
Ti85     Ti     0.1122   0.4456   0.9167
Ti86     Ti     0.8878   0.3333   0.5833
Ti87     Ti     0.0   0.2211   0.25
Ce88     Ce     0.0111   0.3333   0.0833
Ce89     Ce     0.0   0.3444   0.75
Ce90     Ce     0.9889   0.3223   0.4167
S91     S     0.9139   0.3006   0.3541
S92     S     0.9466   0.3661   0.8126
S93     S     0.0327   0.28   0.0207
S94     S     0.0861   0.3867   0.1459
S95     S     0.0534   0.4194   0.6874
S96     S     0.9673   0.2472   0.4793
Be97     Be     0.0   0.7682   0.25
Be98     Be     0.1016   0.6667   0.9167
Be99     Be     0.8984   0.5651   0.5833
Ti100     Ti     0.8878   0.5544   0.0833
Ti101     Ti     0.0   0.7789   0.75
Ti102     Ti     0.1122   0.6667   0.4167
Ce103     Ce     0.9889   0.6667   0.9167
Ce104     Ce     0.0111   0.6777   0.5833
Ce105     Ce     0.0   0.6556   0.25
S106     S     0.0861   0.6994   0.6459
S107     S     0.9673   0.72   0.9793
S108     S     0.0534   0.6339   0.1874
S109     S     0.9139   0.6133   0.8541
S110     S     0.9466   0.5806   0.3126
S111     S     0.0327   0.7528   0.5207
Be112     Be     0.7682   0.7682   0.75
Be113     Be     0.6667   0.5651   0.0833
Be114     Be     0.5651   0.6667   0.4167
Ti115     Ti     0.7789   0.7789   0.25
Ti116     Ti     0.6667   0.5544   0.5833
Ti117     Ti     0.5544   0.6667   0.9167
Ce118     Ce     0.6777   0.6667   0.4167
Ce119     Ce     0.6667   0.6777   0.0833
Ce120     Ce     0.6556   0.6556   0.75
S121     S     0.72   0.7528   0.0207
S122     S     0.7528   0.72   0.4793
S123     S     0.6339   0.5806   0.8126
S124     S     0.5806   0.6339   0.6874
S125     S     0.6133   0.6994   0.1459
S126     S     0.6994   0.6133   0.3541
C127     C     0.8422   0.057   0.3059
B128     B     0.8979   0.0369   0.3094
V129     V     0.9626   0.101   0.1977
Er130     Er     0.8471   0.0618   0.6524
He131     He     0.8037   0.2028   0.1188
Li132     Li     0.8548   0.2266   0.3828
Li133     Li     0.8933   0.1881   0.4505
He134     He     0.8695   0.1371   0.7145
B135     B     0.7036   0.2312   0.524
V136     V     0.7677   0.2959   0.6356
C137     C     0.7237   0.1755   0.5274
Er138     Er     0.7285   0.1805   0.1809
C139     C     0.8815   0.4911   0.6392
B140     B     0.8057   0.4355   0.6427
V141     V     0.8051   0.3708   0.5311
Er142     Er     0.8814   0.4862   0.9857
He143     He     0.9343   0.4638   0.0478
Li144     Li     0.0385   0.4786   0.7161
Li145     Li     0.9615   0.4401   0.7839
He146     He     0.0657   0.5296   0.4522
B147     B     0.1943   0.6298   0.8573
V148     V     0.1949   0.5656   0.9689
C149     C     0.1185   0.6096   0.8608
Er150     Er     0.1186   0.6048   0.5143
B151     B     0.2964   0.5276   0.976
V152     V     0.2323   0.5282   0.8644
C153     C     0.2763   0.4518   0.9726
Er154     Er     0.2715   0.452   0.3191
He155     He     0.1963   0.3991   0.3812
Li156     Li     0.1452   0.3718   0.1172
Li157     Li     0.1067   0.2948   0.0495
He158     He     0.1305   0.2676   0.7855
C159     C     0.1578   0.2148   0.1941
B160     B     0.1021   0.139   0.1906
V161     V     0.0374   0.1385   0.3023
Er162     Er     0.1529   0.2147   0.8476
C163     C     0.2148   0.057   0.8059
B164     B     0.139   0.0369   0.8094
V165     V     0.1385   0.101   0.6977
Er166     Er     0.2147   0.0618   0.1524
He167     He     0.3991   0.2028   0.6188
Li168     Li     0.2948   0.1881   0.9505
Li169     Li     0.3718   0.2266   0.8828
He170     He     0.2676   0.1371   0.2145
B171     B     0.5276   0.2312   0.024
V172     V     0.5282   0.2959   0.1356
C173     C     0.4518   0.1755   0.0274
Er174     Er     0.452   0.1805   0.6809
B175     B     0.2312   0.5276   0.476
V176     V     0.2959   0.5282   0.3644
C177     C     0.1755   0.4518   0.4726
Er178     Er     0.1805   0.452   0.8191
He179     He     0.2028   0.3991   0.8812
Li180     Li     0.2266   0.3718   0.6172
Li181     Li     0.1881   0.2948   0.5495
He182     He     0.1371   0.2676   0.2855
C183     C     0.057   0.2148   0.6941
B184     B     0.0369   0.139   0.6906
V185     V     0.101   0.1385   0.8023
Er186     Er     0.0618   0.2147   0.3476
B187     B     0.4355   0.6298   0.3573
V188     V     0.3708   0.5656   0.4689
C189     C     0.4911   0.6096   0.3608
Er190     Er     0.4862   0.6048   0.0143
He191     He     0.4638   0.5296   0.9522
Li192     Li     0.4401   0.4786   0.2161
Li193     Li     0.4786   0.4401   0.2839
He194     He     0.5296   0.4638   0.5478
C195     C     0.6096   0.4911   0.1392
B196     B     0.6298   0.4355   0.1427
V197     V     0.5656   0.3708   0.0311
Er198     Er     0.6048   0.4862   0.4857
C199     C     0.3904   0.5089   0.8608
B200     B     0.3702   0.5645   0.8573
V201     V     0.4344   0.6292   0.9689
Er202     Er     0.3952   0.5138   0.5143
He203     He     0.4704   0.5362   0.4522
Li204     Li     0.5214   0.5599   0.7161
Li205     Li     0.5599   0.5214   0.7839
He206     He     0.5362   0.4704   0.0478
C207     C     0.5089   0.3904   0.6392
B208     B     0.5645   0.3702   0.6427
V209     V     0.6292   0.4344   0.5311
Er210     Er     0.5138   0.3952   0.9857
C211     C     0.8245   0.5482   0.5274
B212     B     0.7688   0.4724   0.524
V213     V     0.7041   0.4718   0.6356
Er214     Er     0.8195   0.548   0.1809
He215     He     0.8629   0.7324   0.7145
Li216     Li     0.8119   0.7052   0.4505
Li217     Li     0.7734   0.6282   0.3828
He218     He     0.7972   0.6009   0.1188
C219     C     0.943   0.7852   0.3059
B220     B     0.9631   0.861   0.3094
V221     V     0.899   0.8615   0.1977
Er222     Er     0.9382   0.7853   0.6524
B223     B     0.861   0.9631   0.1906
V224     V     0.8615   0.899   0.3023
C225     C     0.7852   0.943   0.1941
Er226     Er     0.7853   0.9382   0.8476
He227     He     0.7324   0.8629   0.7855
Li228     Li     0.7052   0.8119   0.0495
Li229     Li     0.6282   0.7734   0.1172
He230     He     0.6009   0.7972   0.3812
B231     B     0.4724   0.7688   0.976
V232     V     0.4718   0.7041   0.8644
C233     C     0.5482   0.8245   0.9726
Er234     Er     0.548   0.8195   0.3191
C235     C     0.8422   0.7852   0.8059
B236     B     0.8979   0.861   0.8094
V237     V     0.9626   0.8615   0.6977
Er238     Er     0.8471   0.7853   0.1524
He239     He     0.8037   0.6009   0.6188
Li240     Li     0.8933   0.7052   0.9505
Li241     Li     0.8548   0.6282   0.8828
He242     He     0.8695   0.7324   0.2145
B243     B     0.7036   0.4724   0.024
V244     V     0.7677   0.4718   0.1356
C245     C     0.7237   0.5482   0.0274
Er246     Er     0.7285   0.548   0.6809
C247     C     0.1578   0.943   0.6941
B248     B     0.1021   0.9631   0.6906
V249     V     0.0374   0.899   0.8023
Er250     Er     0.1529   0.9382   0.3476
He251     He     0.1963   0.7972   0.8812
Li252     Li     0.1452   0.7734   0.6172
Li253     Li     0.1067   0.8119   0.5495
He254     He     0.1305   0.8629   0.2855
C255     C     0.2763   0.8245   0.4726
B256     B     0.2964   0.7688   0.476
V257     V     0.2323   0.7041   0.3644
Er258     Er     0.2715   0.8195   0.8191
B259     B     0.1943   0.5645   0.3573
V260     V     0.1949   0.6292   0.4689
C261     C     0.1185   0.5089   0.3608
Er262     Er     0.1186   0.5138   0.0143
He263     He     0.0657   0.5362   0.9522
Li264     Li     0.9615   0.5214   0.2839
Li265     Li     0.0385   0.5599   0.2161
He266     He     0.9343   0.4704   0.5478
C267     C     0.8815   0.3904   0.1392
B268     B     0.8057   0.3702   0.1427
V269     V     0.8051   0.4344   0.0311
Er270     Er     0.8814   0.3952   0.4857
B271     B     0.4355   0.8057   0.8573
V272     V     0.3708   0.8051   0.9689
C273     C     0.4911   0.8815   0.8608
Er274     Er     0.4862   0.8814   0.5143
He275     He     0.4638   0.9343   0.4522
Li276     Li     0.4401   0.9615   0.7161
Li277     Li     0.4786   0.0385   0.7839
He278     He     0.5296   0.0657   0.0478
B279     B     0.6298   0.1943   0.6427
V280     V     0.5656   0.1949   0.5311
C281     C     0.6096   0.1185   0.6392
Er282     Er     0.6048   0.1186   0.9857
C283     C     0.057   0.8422   0.1941
B284     B     0.0369   0.8979   0.1906
V285     V     0.101   0.9626   0.3023
Er286     Er     0.0618   0.8471   0.8476
He287     He     0.2028   0.8037   0.3812
Li288     Li     0.2266   0.8548   0.1172
Li289     Li     0.1881   0.8933   0.0495
He290     He     0.1371   0.8695   0.7855
B291     B     0.2312   0.7036   0.976
V292     V     0.2959   0.7677   0.8644
C293     C     0.1755   0.7237   0.9726
Er294     Er     0.1805   0.7285   0.3191
B295     B     0.5276   0.2964   0.524
V296     V     0.5282   0.2323   0.6356
C297     C     0.4518   0.2763   0.5274
Er298     Er     0.452   0.2715   0.1809
He299     He     0.3991   0.1963   0.1188
Li300     Li     0.2948   0.1067   0.4505
Li301     Li     0.3718   0.1452   0.3828
He302     He     0.2676   0.1305   0.7145
C303     C     0.2148   0.1578   0.3059
B304     B     0.139   0.1021   0.3094
V305     V     0.1385   0.0374   0.1977
Er306     Er     0.2147   0.1529   0.6524
C307     C     0.3904   0.8815   0.3608
B308     B     0.3702   0.8057   0.3573
V309     V     0.4344   0.8051   0.4689
Er310     Er     0.3952   0.8814   0.0143
He311     He     0.5362   0.0657   0.5478
Li312     Li     0.5214   0.9615   0.2161
Li313     Li     0.5599   0.0385   0.2839
He314     He     0.4704   0.9343   0.9522
C315     C     0.5089   0.1185   0.1392
B316     B     0.5645   0.1943   0.1427
V317     V     0.6292   0.1949   0.0311
Er318     Er     0.5138   0.1186   0.4857
B319     B     0.4724   0.7036   0.476
V320     V     0.4718   0.7677   0.3644
C321     C     0.5482   0.7237   0.4726
Er322     Er     0.548   0.7285   0.8191
He323     He     0.6009   0.8037   0.8812
Li324     Li     0.7052   0.8933   0.5495
Li325     Li     0.6282   0.8548   0.6172
He326     He     0.7324   0.8695   0.2855
C327     C     0.7852   0.8422   0.6941
B328     B     0.861   0.8979   0.6906
V329     V     0.8615   0.9626   0.8023
Er330     Er     0.7853   0.8471   0.3476
C331     C     0.943   0.1578   0.8059
B332     B     0.9631   0.1021   0.8094
V333     V     0.899   0.0374   0.6977
Er334     Er     0.9382   0.1529   0.1524
He335     He     0.7972   0.1963   0.6188
Li336     Li     0.7734   0.1452   0.8828
Li337     Li     0.8119   0.1067   0.9505
He338     He     0.8629   0.1305   0.2145
C339     C     0.8245   0.2763   0.0274
B340     B     0.7688   0.2964   0.024
V341     V     0.7041   0.2323   0.1356
Er342     Er     0.8195   0.2715   0.6809
loop_
_geom_bond_atom_site_label_1
_geom_bond_atom_site_label_2
_geom_bond_distance
_geom_bond_site_symmetry_2
_ccdc_geom_bond_type
H1     H6    10.0   .     S
H1     H3    10.0   .     S
H1     B171    10.0   1_556     S
H1     V296    10.0   .     S
H2     H3    10.0   .     S
H2     H5    10.0   .     S
H2     V136    10.0   .     S
H2     B340    10.0   1_556     S
H3     B279    10.0   .     S
H3     V317    10.0   1_556     S
H4     H5    10.0   .     S
H4     H6    10.0   .     S
H4     V213    10.0   .     S
H4     B243    10.0   1_556     S
H5     B140    10.0   .     S
H5     V269    10.0   1_556     S
H6     V197    10.0   1_556     S
H6     B208    10.0   .     S
H7     H12    10.0   .     S
H7     H9    10.0   .     S
H7     B187    10.0   .     S
H7     V201    10.0   1_554     S
H8     H9    10.0   .     S
H8     H10    10.0   .     S
H8     V148    10.0   1_554     S
H8     B259    10.0   .     S
H9     B151    10.0   1_554     S
H9     V176    10.0   .     S
H10     H11    10.0   .     S
H10     V257    10.0   .     S
H10     B291    10.0   1_554     S
H11     H12    10.0   .     S
H11     V272    10.0   1_554     S
H11     B308    10.0   .     S
H12     B231    10.0   1_554     S
H12     V320    10.0   .     S
H13     H17    10.0   .     S
H13     H14    10.0   .     S
H13     V141    10.0   .     S
H13     B268    10.0   .     S
H14     H15    10.0   .     S
H14     B135    10.0   .     S
H14     V341    10.0   .     S
H15     H18    10.0   .     S
H15     V280    10.0   .     S
H15     B316    10.0   .     S
H16     H17    10.0   .     S
H16     H18    10.0   .     S
H16     B196    10.0   .     S
H16     V209    10.0   .     S
H17     B212    10.0   .     S
H17     V244    10.0   .     S
H18     V172    10.0   .     S
H18     B295    10.0   .     S
H19     H24    10.0   1_554     S
H19     H20    10.0   1_654     S
H19     V221    10.0   .     S
H19     B236    10.0   1_554     S
H20     H19    10.0   1_456     S
H20     H22    10.0   1_566     S
H20     V249    10.0   .     S
H20     B284    10.0   1_556     S
H21     H23    10.0   1_654     S
H21     H24    10.0   1_544     S
H21     V129    10.0   .     S
H21     B332    10.0   1_554     S
H22     H20    10.0   1_544     S
H22     H23    10.0   1_554     S
H22     B164    10.0   1_554     S
H22     V305    10.0   .     S
H23     H21    10.0   1_456     S
H23     H22    10.0   1_556     S
H23     B160    10.0   1_556     S
H23     V185    10.0   .     S
H24     H19    10.0   1_556     S
H24     H21    10.0   1_566     S
H24     B223    10.0   1_556     S
H24     V329    10.0   .     S
H25     H26    10.0   .     S
H25     H27    10.0   1_455     S
H25     V161    10.0   .     S
H25     B184    10.0   .     S
H26     H29    10.0   1_545     S
H26     V165    10.0   .     S
H26     B304    10.0   .     S
H27     H28    10.0   1_545     S
H27     H25    10.0   1_655     S
H27     B128    10.0   .     S
H27     V333    10.0   .     S
H28     H27    10.0   1_565     S
H28     H30    10.0   .     S
H28     V224    10.0   .     S
H28     B328    10.0   .     S
H29     H26    10.0   1_565     S
H29     H30    10.0   1_455     S
H29     B248    10.0   .     S
H29     V285    10.0   .     S
H30     H29    10.0   1_655     S
H30     B220    10.0   .     S
H30     V237    10.0   .     S
H31     H36    10.0   .     S
H31     H32    10.0   .     S
H31     V152    10.0   .     S
H31     B175    10.0   .     S
H32     H33    10.0   .     S
H32     B147    10.0   .     S
H32     V260    10.0   .     S
H33     H35    10.0   .     S
H33     B256    10.0   .     S
H33     V292    10.0   .     S
H34     H36    10.0   .     S
H34     H35    10.0   .     S
H34     V232    10.0   .     S
H34     B319    10.0   .     S
H35     B271    10.0   .     S
H35     V309    10.0   .     S
H36     V188    10.0   .     S
H36     B200    10.0   .     S
Be37     S47    10.0   .     S
Be37     S46    10.0   1_554     S
Be37     C159    9.999   .     S
Be37     C303    9.999   .     S
Be38     S49    10.0   1_556     S
Be38     S51    10.0   .     S
Be38     C153    9.999   .     S
Be38     C199    9.999   .     S
Be39     S48    10.0   .     S
Be39     S50    10.0   .     S
Be39     C207    9.999   .     S
Be39     C297    9.999   .     S
Ti40     Er306    10.0   .     S
Ti40     Er162    10.0   .     S
Ti40     S47    10.0   .     S
Ti40     S46    10.0   .     S
Ti41     Er298    10.0   .     S
Ti41     Er210    10.0   1_554     S
Ti41     S50    10.0   1_554     S
Ti41     S48    10.0   .     S
Ti42     Er202    10.0   .     S
Ti42     Er154    10.0   .     S
Ti42     S51    10.0   .     S
Ti42     S49    10.0   .     S
Ce43     S49    9.999   .     S
Ce43     S48    9.999   .     S
Ce43     Ce45    10.0   1_554     S
Ce43     Ce44    10.0   .     S
Ce44     S47    9.999   .     S
Ce44     S51    9.999   .     S
Ce44     Ce45    10.0   .     S
Ce45     Ce43    10.0   1_556     S
Ce45     S46    9.999   .     S
Ce45     S50    9.999   .     S
S46     Be37    10.0   1_556     S
S46     Li168    10.001   .     S
S47     Li181    10.001   .     S
S48     Li193    10.001   .     S
S49     Be38    10.0   1_554     S
S49     Li192    10.001   .     S
S50     Ti41    10.0   1_556     S
S50     Li169    10.001   .     S
S51     Li180    10.001   .     S
Be52     S62    10.0   .     S
Be52     S61    10.0   .     S
Be52     C255    9.999   .     S
Be52     C307    9.999   .     S
Be53     S66    10.0   1_546     S
Be53     S63    10.0   .     S
Be53     C163    9.999   .     S
Be53     C247    9.999   1_545     S
Be54     S65    10.0   1_554     S
Be54     S64    10.0   .     S
Be54     C173    9.999   .     S
Be54     C315    9.999   .     S
Ti55     Er318    10.0   .     S
Ti55     Er174    10.0   .     S
Ti55     S65    10.0   .     S
Ti55     S64    10.0   .     S
Ti56     Er310    10.0   1_556     S
Ti56     Er258    10.0   .     S
Ti56     S62    10.0   .     S
Ti56     S61    10.0   1_556     S
Ti57     Er250    10.0   1_545     S
Ti57     Er166    10.0   .     S
Ti57     S66    10.0   1_545     S
Ti57     S63    10.0   .     S
Ce58     Ce60    10.0   1_545     S
Ce58     S63    9.999   .     S
Ce58     S64    9.999   .     S
Ce58     Ce59    10.0   .     S
Ce59     S65    9.999   .     S
Ce59     S62    9.999   1_545     S
Ce59     Ce60    10.0   1_546     S
Ce60     Ce58    10.0   1_565     S
Ce60     Ce59    10.0   1_564     S
Ce60     S66    9.999   .     S
Ce60     S61    9.999   .     S
S61     Ti56    10.0   1_554     S
S61     Li288    10.001   .     S
S62     Ce59    9.999   1_565     S
S62     Li276    10.001   .     S
S63     Li300    10.001   .     S
S64     Li301    10.001   .     S
S65     Be54    10.0   1_556     S
S65     Li277    10.001   .     S
S66     Be53    10.0   1_564     S
S66     Ti57    10.0   1_565     S
S66     Li289    10.001   .     S
Be67     S76    10.0   .     S
Be67     S78    10.0   .     S
Be67     C137    9.999   .     S
Be67     C281    9.999   .     S
Be68     S79    10.0   .     S
Be68     S80    10.0   1_556     S
Be68     C233    9.999   .     S
Be68     C273    9.999   .     S
Be69     S77    10.0   1_545     S
Be69     S81    10.0   1_554     S
Be69     C127    9.999   .     S
Be69     C225    9.999   1_545     S
Ti70     Er282    10.0   1_554     S
Ti70     Er138    10.0   .     S
Ti70     S78    10.0   .     S
Ti70     S76    10.0   1_554     S
Ti71     Er234    10.0   .     S
Ti71     Er274    10.0   .     S
Ti71     S79    10.0   .     S
Ti71     S80    10.0   .     S
Ti72     Er226    10.0   1_545     S
Ti72     Er130    10.0   .     S
Ti72     S77    10.0   1_545     S
Ti72     S81    10.0   .     S
Ce73     Ce75    10.0   1_545     S
Ce73     S81    9.999   .     S
Ce73     S76    9.999   .     S
Ce73     Ce74    10.0   1_556     S
Ce74     Ce73    10.0   1_554     S
Ce74     S80    9.999   1_545     S
Ce74     S78    9.999   .     S
Ce74     Ce75    10.0   1_545     S
Ce75     Ce73    10.0   1_565     S
Ce75     Ce74    10.0   1_565     S
Ce75     S79    9.999   .     S
Ce75     S77    9.999   .     S
S76     Ti70    10.0   1_556     S
S76     Li336    10.001   .     S
S77     Be69    10.0   1_565     S
S77     Ti72    10.0   1_565     S
S77     Li324    10.001   .     S
S78     Li313    10.001   .     S
S79     Li325    10.001   .     S
S80     Be68    10.0   1_554     S
S80     Ce74    9.999   1_565     S
S80     Li312    10.001   .     S
S81     Be69    10.0   1_556     S
S81     Li337    10.001   .     S
Be82     S94    10.0   .     S
Be82     S95    10.0   .     S
Be82     C177    9.999   .     S
Be82     C261    9.999   .     S
Be83     S91    10.0   .     S
Be83     S92    10.0   1_554     S
Be83     C267    9.999   .     S
Be83     C339    9.999   .     S
Be84     S93    10.0   1_556     S
Be84     S96    10.0   1_455     S
Be84     C183    9.999   .     S
Be84     C331    9.999   1_455     S
Ti85     Er262    10.0   1_556     S
Ti85     Er178    10.0   .     S
Ti85     S94    10.0   1_556     S
Ti85     S95    10.0   .     S
Ti86     Er342    10.0   .     S
Ti86     Er270    10.0   .     S
Ti86     S91    10.0   .     S
Ti86     S92    10.0   .     S
Ti87     Er334    10.0   1_455     S
Ti87     Er186    10.0   .     S
Ti87     S93    10.0   .     S
Ti87     S96    10.0   1_455     S
Ce88     Ce90    10.0   1_455     S
Ce88     S93    9.999   .     S
Ce88     S94    9.999   .     S
Ce88     Ce89    10.0   1_554     S
Ce89     Ce88    10.0   1_556     S
Ce89     S95    9.999   .     S
Ce89     S92    9.999   1_455     S
Ce89     Ce90    10.0   1_455     S
Ce90     Ce88    10.0   1_655     S
Ce90     Ce89    10.0   1_655     S
Ce90     S96    9.999   .     S
Ce90     S91    9.999   .     S
S91     Li132    10.001   .     S
S92     Be83    10.0   1_556     S
S92     Ce89    9.999   1_655     S
S92     Li145    10.001   .     S
S93     Be84    10.0   1_554     S
S93     Li157    10.001   .     S
S94     Ti85    10.0   1_554     S
S94     Li156    10.001   .     S
S95     Li144    10.001   .     S
S96     Be84    10.0   1_655     S
S96     Ti87    10.0   1_655     S
S96     Li133    10.001   .     S
Be97     S107    10.0   1_454     S
Be97     S111    10.0   .     S
Be97     C219    9.999   1_455     S
Be97     C283    9.999   .     S
Be98     S106    10.0   .     S
Be98     S108    10.0   1_556     S
Be98     C149    9.999   .     S
Be98     C293    9.999   .     S
Be99     S109    10.0   .     S
Be99     S110    10.0   .     S
Be99     C139    9.999   .     S
Be99     C211    9.999   .     S
Ti100     Er214    10.0   .     S
Ti100     Er142    10.0   1_554     S
Ti100     S109    10.0   1_554     S
Ti100     S110    10.0   .     S
Ti101     Er286    10.0   .     S
Ti101     Er222    10.0   1_455     S
Ti101     S107    10.0   1_455     S
Ti101     S111    10.0   .     S
Ti102     Er150    10.0   .     S
Ti102     Er294    10.0   .     S
Ti102     S106    10.0   .     S
Ti102     S108    10.0   .     S
Ce103     Ce104    10.0   1_655     S
Ce103     S107    9.999   .     S
Ce103     S109    9.999   .     S
Ce103     Ce105    10.0   1_656     S
Ce104     Ce103    10.0   1_455     S
Ce104     S111    9.999   .     S
Ce104     S106    9.999   .     S
Ce104     Ce105    10.0   .     S
Ce105     Ce103    10.0   1_454     S
Ce105     S110    9.999   1_455     S
Ce105     S108    9.999   .     S
S106     Li252    10.001   .     S
S107     Be97    10.0   1_656     S
S107     Ti101    10.0   1_655     S
S107     Li240    10.001   .     S
S108     Be98    10.0   1_554     S
S108     Li265    10.001   .     S
S109     Ti100    10.0   1_556     S
S109     Li241    10.001   .     S
S110     Ce105    9.999   1_655     S
S110     Li264    10.001   .     S
S111     Li253    10.001   .     S
Be112     S122    10.0   .     S
Be112     S121    10.0   1_556     S
Be112     C235    9.999   .     S
Be112     C327    9.999   .     S
Be113     S123    10.0   1_554     S
Be113     S126    10.0   .     S
Be113     C195    9.999   .     S
Be113     C245    9.999   .     S
Be114     S125    10.0   .     S
Be114     S124    10.0   .     S
Be114     C189    9.999   .     S
Be114     C321    9.999   .     S
Ti115     Er330    10.0   .     S
Ti115     Er238    10.0   .     S
Ti115     S121    10.0   .     S
Ti115     S122    10.0   .     S
Ti116     Er198    10.0   .     S
Ti116     Er246    10.0   .     S
Ti116     S123    10.0   .     S
Ti116     S126    10.0   .     S
Ti117     Er190    10.0   1_556     S
Ti117     Er322    10.0   .     S
Ti117     S125    10.0   1_556     S
Ti117     S124    10.0   .     S
Ce118     S122    9.999   .     S
Ce118     S126    9.999   .     S
Ce118     Ce119    10.0   .     S
Ce118     Ce120    10.0   .     S
Ce119     S121    9.999   .     S
Ce119     S125    9.999   .     S
Ce119     Ce120    10.0   1_554     S
Ce120     Ce119    10.0   1_556     S
Ce120     S124    9.999   .     S
Ce120     S123    9.999   .     S
S121     Be112    10.0   1_554     S
S121     Li228    10.001   .     S
S122     Li216    10.001   .     S
S123     Be113    10.0   1_556     S
S123     Li205    10.001   .     S
S124     Li204    10.001   .     S
S125     Ti117    10.0   1_554     S
S125     Li229    10.001   .     S
S126     Li217    10.001   .     S
C127     Er130    10.0   .     S
C127     B128    10.0   .     S
C127     He338    10.0   .     S
B128     V129    9.999   .     S
B128     B223    10.002   1_545     S
V129     V161    10.001   1_655     S
V129     Er334    10.001   .     S
Er130     V333    10.001   .     S
Er130     He134    10.0   .     S
He131     Er138    10.0   .     S
He131     Li336    10.0   1_554     S
He131     Li132    10.0   .     S
He131     C339    10.0   .     S
Li132     Li133    10.0   .     S
Li132     He335    10.0   .     S
Li133     He134    10.0   .     S
Li133     He338    10.0   .     S
He134     Li337    10.0   .     S
He134     C331    10.0   .     S
B135     V136    9.999   .     S
B135     C137    10.0   .     S
B135     B279    10.002   .     S
V136     V141    10.001   .     S
V136     Er342    10.001   .     S
C137     Er138    10.0   .     S
C137     He335    10.0   .     S
Er138     V341    10.001   .     S
C139     Er142    10.0   .     S
C139     B140    10.0   .     S
C139     He266    10.0   .     S
B140     V141    9.999   .     S
B140     B212    10.002   .     S
V141     Er270    10.001   .     S
Er142     Ti100    10.0   1_556     S
Er142     V269    10.001   1_556     S
Er142     He143    10.0   1_556     S
He143     Er142    10.0   1_554     S
He143     Li264    10.0   .     S
He143     Li145    10.0   1_554     S
He143     C267    10.0   .     S
Li144     Li145    10.0   1_455     S
Li144     He146    10.0   .     S
Li144     He263    10.0   .     S
Li145     He143    10.0   1_556     S
Li145     Li144    10.0   1_655     S
Li145     He266    10.0   .     S
He146     Er150    10.0   .     S
He146     Li265    10.0   .     S
He146     C261    10.0   .     S
B147     V148    9.999   .     S
B147     C149    10.0   .     S
B147     B291    10.002   .     S
V148     H8    10.0   1_556     S
V148     V152    10.001   .     S
V148     Er262    10.001   1_556     S
C149     Er150    10.0   .     S
C149     He263    10.0   .     S
Er150     V260    10.001   .     S
B151     V152    9.999   .     S
B151     H9    10.0   1_556     S
B151     C153    10.0   .     S
B151     B200    10.002   .     S
V152     Er178    10.001   .     S
C153     Er154    10.0   1_556     S
C153     He179    10.0   .     S
Er154     C153    10.0   1_554     S
Er154     V176    10.001   .     S
Er154     He155    10.0   .     S
He155     Li180    10.0   .     S
He155     Li156    10.0   .     S
He155     C177    10.0   .     S
Li156     Li157    10.0   .     S
Li156     He179    10.0   1_554     S
Li157     He158    10.0   1_554     S
Li157     He182    10.0   .     S
He158     Er162    10.0   .     S
He158     Li181    10.0   .     S
He158     Li157    10.0   1_556     S
He158     C183    10.0   .     S
C159     Er162    10.0   1_554     S
C159     B160    10.0   .     S
C159     He182    10.0   .     S
B160     V161    9.999   .     S
B160     H23    10.0   1_554     S
B160     B304    10.002   .     S
V161     V129    10.001   1_455     S
V161     Er186    10.001   .     S
Er162     C159    10.0   1_556     S
Er162     V185    10.001   .     S
C163     Er166    10.0   1_556     S
C163     B164    10.0   .     S
C163     He302    10.0   .     S
B164     V165    9.999   .     S
B164     H22    10.0   1_556     S
B164     B248    10.002   1_545     S
V165     V185    10.001   .     S
V165     Er306    10.001   .     S
Er166     C163    10.0   1_554     S
Er166     V305    10.001   .     S
Er166     He170    10.0   .     S
He167     Er174    10.0   .     S
He167     Li301    10.0   .     S
He167     Li169    10.0   .     S
He167     C297    10.0   .     S
Li168     Li169    10.0   .     S
Li168     He170    10.0   1_556     S
Li168     He302    10.0   .     S
Li169     He299    10.0   1_556     S
He170     Li300    10.0   .     S
He170     Li168    10.0   1_554     S
He170     C303    10.0   .     S
B171     V172    9.999   .     S
B171     H1    10.0   1_554     S
B171     C173    10.0   .     S
B171     B316    10.002   .     S
V172     V197    10.001   .     S
V172     Er298    10.001   .     S
C173     Er174    10.0   1_554     S
C173     He299    10.0   .     S
Er174     C173    10.0   1_556     S
Er174     V296    10.001   .     S
B175     V176    9.999   .     S
B175     C177    10.0   .     S
B175     B259    10.002   .     S
V176     V188    10.001   .     S
C177     Er178    10.0   .     S
Er178     He179    10.0   .     S
He179     Li156    10.0   1_556     S
He179     Li180    10.0   .     S
Li180     Li181    10.0   .     S
Li181     He182    10.0   .     S
He182     Er186    10.0   .     S
C183     Er186    10.0   .     S
C183     B184    10.0   .     S
B184     V185    9.999   .     S
B184     B332    10.002   1_455     S
B187     V188    9.999   .     S
B187     C189    10.0   .     S
B187     B319    10.002   .     S
V188     Er202    10.001   .     S
C189     Er190    10.0   .     S
C189     He203    10.0   .     S
Er190     Ti117    10.0   1_554     S
Er190     V201    10.001   1_554     S
Er190     He191    10.0   1_554     S
He191     Er190    10.0   1_556     S
He191     Li204    10.0   .     S
He191     Li192    10.0   1_556     S
He191     C199    10.0   .     S
Li192     He191    10.0   1_554     S
Li192     Li193    10.0   .     S
Li192     He203    10.0   .     S
Li193     He194    10.0   .     S
Li193     He206    10.0   .     S
He194     Er198    10.0   .     S
He194     Li205    10.0   .     S
He194     C207    10.0   .     S
C195     Er198    10.0   .     S
C195     B196    10.0   .     S
C195     He206    10.0   .     S
B196     V197    9.999   .     S
B196     B243    10.002   .     S
V197     H6    10.0   1_554     S
V197     Er210    10.001   1_554     S
Er198     V209    10.001   .     S
C199     Er202    10.0   .     S
C199     B200    10.0   .     S
B200     V201    9.999   .     S
V201     Er190    10.001   1_556     S
V201     H7    10.0   1_556     S
V201     V232    10.001   .     S
Er202     He203    10.0   .     S
He203     Li204    10.0   .     S
Li204     Li205    10.0   .     S
Li205     He206    10.0   1_556     S
He206     Er210    10.0   1_554     S
He206     Li205    10.0   1_554     S
C207     Er210    10.0   .     S
C207     B208    10.0   .     S
B208     V209    9.999   .     S
B208     B295    10.002   .     S
V209     V213    10.001   .     S
Er210     Ti41    10.0   1_556     S
Er210     He206    10.0   1_556     S
Er210     V197    10.001   1_556     S
C211     Er214    10.0   .     S
C211     B212    10.0   .     S
C211     He239    10.0   .     S
B212     V213    9.999   .     S
V213     Er246    10.001   .     S
Er214     V244    10.001   .     S
Er214     He218    10.0   .     S
He215     Er222    10.0   .     S
He215     Li240    10.0   .     S
He215     Li216    10.0   .     S
He215     C235    10.0   .     S
Li216     Li217    10.0   .     S
Li216     He242    10.0   .     S
Li217     He218    10.0   .     S
Li217     He239    10.0   .     S
He218     Li241    10.0   1_554     S
He218     C245    10.0   .     S
C219     Be97    9.999   1_655     S
C219     Er222    10.0   .     S
C219     B220    10.0   .     S
C219     He242    10.0   .     S
B220     V221    9.999   .     S
B220     B284    10.002   1_655     S
V221     V224    10.001   .     S
V221     Er238    10.001   .     S
Er222     Ti101    10.0   1_655     S
Er222     V237    10.001   .     S
B223     V224    9.999   .     S
B223     H24    10.0   1_554     S
B223     C225    10.0   .     S
B223     B128    10.002   1_565     S
V224     Er330    10.001   .     S
C225     Be69    9.999   1_565     S
C225     Er226    10.0   1_554     S
C225     He326    10.0   .     S
Er226     Ti72    10.0   1_565     S
Er226     C225    10.0   1_556     S
Er226     V329    10.001   .     S
Er226     He227    10.0   .     S
He227     Li324    10.0   .     S
He227     Li228    10.0   1_556     S
He227     C327    10.0   .     S
Li228     He227    10.0   1_554     S
Li228     Li229    10.0   .     S
Li228     He326    10.0   .     S
Li229     He230    10.0   .     S
Li229     He323    10.0   1_554     S
He230     Er234    10.0   .     S
He230     Li325    10.0   .     S
He230     C321    10.0   .     S
B231     V232    9.999   .     S
B231     H12    10.0   1_556     S
B231     C233    10.0   .     S
B231     B271    10.002   .     S
V232     Er322    10.001   .     S
C233     Er234    10.0   1_556     S
C233     He323    10.0   .     S
Er234     C233    10.0   1_554     S
Er234     V320    10.001   .     S
C235     Er238    10.0   1_556     S
C235     B236    10.0   .     S
B236     V237    9.999   .     S
B236     H19    10.0   1_556     S
B236     B328    10.002   .     S
V237     V249    10.001   1_655     S
Er238     C235    10.0   1_554     S
Er238     He242    10.0   .     S
He239     Er246    10.0   .     S
He239     Li241    10.0   .     S
Li240     Li241    10.0   .     S
Li240     He242    10.0   1_556     S
Li241     He218    10.0   1_556     S
He242     Li240    10.0   1_554     S
B243     V244    9.999   .     S
B243     H4    10.0   1_554     S
B243     C245    10.0   .     S
V244     V269    10.001   .     S
C245     Er246    10.0   1_554     S
Er246     C245    10.0   1_556     S
C247     Be53    9.999   1_565     S
C247     Er250    10.0   .     S
C247     B248    10.0   .     S
C247     He290    10.0   .     S
B248     V249    9.999   .     S
B248     B164    10.002   1_565     S
V249     V237    10.001   1_455     S
V249     Er286    10.001   .     S
Er250     Ti57    10.0   1_565     S
Er250     V285    10.001   .     S
Er250     He254    10.0   .     S
He251     Er258    10.0   .     S
He251     Li288    10.0   1_556     S
He251     Li252    10.0   .     S
He251     C293    10.0   .     S
Li252     Li253    10.0   .     S
Li252     He287    10.0   .     S
Li253     He254    10.0   .     S
Li253     He290    10.0   .     S
He254     Li289    10.0   .     S
He254     C283    10.0   .     S
C255     Er258    10.0   .     S
C255     B256    10.0   .     S
C255     He287    10.0   .     S
B256     V257    9.999   .     S
B256     B308    10.002   .     S
V257     V260    10.001   .     S
V257     Er294    10.001   .     S
Er258     V292    10.001   .     S
B259     V260    9.999   .     S
B259     C261    10.0   .     S
C261     Er262    10.0   .     S
Er262     Ti85    10.0   1_554     S
Er262     V148    10.001   1_554     S
Er262     He263    10.0   1_554     S
He263     Er262    10.0   1_556     S
He263     Li265    10.0   1_556     S
Li264     Li265    10.0   1_655     S
Li264     He266    10.0   .     S
Li265     He263    10.0   1_554     S
Li265     Li264    10.0   1_455     S
He266     Er270    10.0   .     S
C267     Er270    10.0   .     S
C267     B268    10.0   .     S
B268     V269    9.999   .     S
B268     B340    10.002   .     S
V269     Er142    10.001   1_554     S
V269     H5    10.0   1_554     S
B271     V272    9.999   .     S
B271     C273    10.0   .     S
V272     H11    10.0   1_556     S
V272     V292    10.001   .     S
V272     Er310    10.001   1_556     S
C273     Er274    10.0   .     S
C273     He314    10.0   .     S
Er274     V309    10.001   .     S
Er274     He275    10.0   .     S
He275     Li312    10.0   .     S
He275     Li276    10.0   .     S
He275     C307    10.0   .     S
Li276     Li277    10.0   1_565     S
Li276     He314    10.0   .     S
Li277     Li276    10.0   1_545     S
Li277     He278    10.0   1_556     S
Li277     He311    10.0   .     S
He278     Er282    10.0   1_554     S
He278     Li313    10.0   .     S
He278     Li277    10.0   1_554     S
He278     C315    10.0   .     S
B279     V280    9.999   .     S
B279     C281    10.0   .     S
V280     V296    10.001   .     S
V280     Er318    10.001   .     S
C281     Er282    10.0   .     S
C281     He311    10.0   .     S
Er282     Ti70    10.0   1_556     S
Er282     He278    10.0   1_556     S
Er282     V317    10.001   1_556     S
C283     Er286    10.0   1_554     S
C283     B284    10.0   .     S
B284     V285    9.999   .     S
B284     H20    10.0   1_554     S
B284     B220    10.002   1_455     S
V285     V305    10.001   1_565     S
Er286     C283    10.0   1_556     S
Er286     He290    10.0   .     S
He287     Er294    10.0   .     S
He287     Li288    10.0   .     S
Li288     He251    10.0   1_554     S
Li288     Li289    10.0   .     S
Li289     He290    10.0   1_554     S
He290     Li289    10.0   1_556     S
B291     V292    9.999   .     S
B291     H10    10.0   1_556     S
B291     C293    10.0   .     S
C293     Er294    10.0   1_556     S
Er294     C293    10.0   1_554     S
B295     V296    9.999   .     S
B295     C297    10.0   .     S
C297     Er298    10.0   .     S
Er298     He299    10.0   .     S
He299     Li169    10.0   1_554     S
He299     Li301    10.0   .     S
Li300     Li301    10.0   .     S
Li300     He302    10.0   .     S
He302     Er306    10.0   .     S
C303     Er306    10.0   .     S
C303     B304    10.0   .     S
B304     V305    9.999   .     S
V305     V285    10.001   1_545     S
C307     Er310    10.0   .     S
C307     B308    10.0   .     S
B308     V309    9.999   .     S
V309     V320    10.001   .     S
Er310     Ti56    10.0   1_554     S
Er310     V272    10.001   1_554     S
Er310     He314    10.0   1_554     S
He311     Er318    10.0   .     S
He311     Li313    10.0   .     S
Li312     Li313    10.0   1_565     S
Li312     He314    10.0   1_554     S
Li313     Li312    10.0   1_545     S
He314     Er310    10.0   1_556     S
He314     Li312    10.0   1_556     S
C315     Er318    10.0   .     S
C315     B316    10.0   .     S
B316     V317    9.999   .     S
V317     Er282    10.001   1_554     S
V317     H3    10.0   1_554     S
V317     V341    10.001   .     S
B319     V320    9.999   .     S
B319     C321    10.0   .     S
C321     Er322    10.0   .     S
Er322     He323    10.0   .     S
He323     Li229    10.0   1_556     S
He323     Li325    10.0   .     S
Li324     Li325    10.0   .     S
Li324     He326    10.0   .     S
He326     Er330    10.0   .     S
C327     Er330    10.0   .     S
C327     B328    10.0   .     S
B328     V329    9.999   .     S
V329     V333    10.001   1_565     S
C331     Be84    9.999   1_655     S
C331     Er334    10.0   1_556     S
C331     B332    10.0   .     S
B332     V333    9.999   .     S
B332     H21    10.0   1_556     S
B332     B184    10.002   1_655     S
V333     V329    10.001   1_545     S
Er334     Ti87    10.0   1_655     S
Er334     C331    10.0   1_554     S
Er334     He338    10.0   .     S
He335     Er342    10.0   .     S
He335     Li336    10.0   .     S
Li336     He131    10.0   1_556     S
Li336     Li337    10.0   .     S
Li337     He338    10.0   1_556     S
He338     Li337    10.0   1_554     S
C339     Er342    10.0   1_554     S
C339     B340    10.0   .     S
B340     V341    9.999   .     S
B340     H2    10.0   1_554     S
Er342     C339    10.0   1_556     S
