data_ogea
_audit_creation_date              2020-02-02
_audit_creation_method            'Pymatgen'
_symmetry_space_group_name_H-M    'P1'
_symmetry_Int_Tables_number       1
loop_
_symmetry_equiv_pos_as_xyz
  x,y,z
_cell_length_a                    168.2418
_cell_length_b                    168.2418
_cell_length_c                    168.2418
_cell_angle_alpha                 90.0
_cell_angle_beta                 90.0
_cell_angle_gamma                 90.0
loop_
_atom_site_label
_atom_site_type_symbol
_atom_site_fract_x
_atom_site_fract_y
_atom_site_fract_z
Li1     Li     0.1072   0.585   0.1072
Li2     Li     0.1072   0.415   0.1072
He3     He     0.1226   0.4703   0.1226
He4     He     0.1226   0.5297   0.1226
V5     V     0.159   0.5   0.159
Li6     Li     0.585   0.1072   0.1072
Li7     Li     0.415   0.1072   0.1072
He8     He     0.4703   0.1226   0.1226
He9     He     0.5297   0.1226   0.1226
V10     V     0.5   0.159   0.159
Li11     Li     0.1072   0.1072   0.585
Li12     Li     0.1072   0.1072   0.415
He13     He     0.1226   0.1226   0.4703
He14     He     0.1226   0.1226   0.5297
V15     V     0.159   0.159   0.5
Li16     Li     0.1072   0.8928   0.585
Li17     Li     0.1072   0.8928   0.415
He18     He     0.1226   0.8774   0.4703
He19     He     0.1226   0.8774   0.5297
V20     V     0.159   0.841   0.5
Li21     Li     0.8928   0.1072   0.585
Li22     Li     0.8928   0.1072   0.415
He23     He     0.8774   0.1226   0.4703
He24     He     0.8774   0.1226   0.5297
V25     V     0.841   0.159   0.5
Li26     Li     0.585   0.8928   0.1072
Li27     Li     0.415   0.8928   0.1072
He28     He     0.4703   0.8774   0.1226
He29     He     0.5297   0.8774   0.1226
V30     V     0.5   0.841   0.159
Li31     Li     0.585   0.1072   0.8928
Li32     Li     0.415   0.1072   0.8928
He33     He     0.4703   0.1226   0.8774
He34     He     0.5297   0.1226   0.8774
V35     V     0.5   0.159   0.841
Li36     Li     0.1072   0.585   0.8928
Li37     Li     0.1072   0.415   0.8928
He38     He     0.1226   0.4703   0.8774
He39     He     0.1226   0.5297   0.8774
V40     V     0.159   0.5   0.841
Li41     Li     0.8928   0.585   0.1072
Li42     Li     0.8928   0.415   0.1072
He43     He     0.8774   0.4703   0.1226
He44     He     0.8774   0.5297   0.1226
V45     V     0.841   0.5   0.159
Li46     Li     0.8928   0.585   0.8928
Li47     Li     0.8928   0.415   0.8928
He48     He     0.8774   0.4703   0.8774
He49     He     0.8774   0.5297   0.8774
V50     V     0.841   0.5   0.841
Li51     Li     0.585   0.8928   0.8928
Li52     Li     0.415   0.8928   0.8928
He53     He     0.4703   0.8774   0.8774
He54     He     0.5297   0.8774   0.8774
V55     V     0.5   0.841   0.841
Ti56     Ti     0.7585   0.7165   0.0
Ce57     Ce     0.8064   0.6814   0.0
Er58     Er     0.7011   0.7011   0.0
Ti59     Ti     0.7165   0.7585   0.0
Ce60     Ce     0.6814   0.8064   0.0
Ce61     Ce     0.6814   0.0   0.1936
Ti62     Ti     0.7165   0.0   0.2415
Er63     Er     0.7011   0.0   0.2989
Ti64     Ti     0.7585   0.0   0.2835
Ce65     Ce     0.8064   0.0   0.3186
Ce66     Ce     0.6814   0.1936   0.0
Ti67     Ti     0.7165   0.2415   0.0
Er68     Er     0.7011   0.2989   0.0
Ti69     Ti     0.7585   0.2835   0.0
Ce70     Ce     0.8064   0.3186   0.0
H71     H     0.6334   0.8841   0.9261
S72     S     0.6534   0.8497   0.9703
H73     H     0.6334   0.9261   0.8841
S74     S     0.6534   0.9703   0.8497
H75     H     0.6334   0.9261   0.1159
S76     S     0.6534   0.9703   0.1503
H77     H     0.6334   0.8841   0.0739
S78     S     0.6534   0.8497   0.0297
H79     H     0.6334   0.0739   0.1159
S80     S     0.6534   0.0297   0.1503
H81     H     0.6334   0.1159   0.0739
S82     S     0.6534   0.1503   0.0297
H83     H     0.6334   0.1159   0.9261
S84     S     0.6534   0.1503   0.9703
H85     H     0.6334   0.0739   0.8841
S86     S     0.6534   0.0297   0.8497
Ce87     Ce     0.1936   0.6814   0.0
Ti88     Ti     0.2415   0.7165   0.0
Er89     Er     0.2989   0.7011   0.0
Ti90     Ti     0.2835   0.7585   0.0
Ce91     Ce     0.3186   0.8064   0.0
Ce92     Ce     0.0   0.6814   0.1936
Ti93     Ti     0.0   0.7165   0.2415
Er94     Er     0.0   0.7011   0.2989
Ti95     Ti     0.0   0.7585   0.2835
Ce96     Ce     0.0   0.8064   0.3186
H97     H     0.8841   0.6334   0.9261
S98     S     0.8497   0.6534   0.9703
H99     H     0.9261   0.6334   0.8841
S100     S     0.9703   0.6534   0.8497
H101     H     0.1159   0.6334   0.9261
S102     S     0.1503   0.6534   0.9703
H103     H     0.0739   0.6334   0.8841
S104     S     0.0297   0.6534   0.8497
H105     H     0.1159   0.6334   0.0739
S106     S     0.1503   0.6534   0.0297
H107     H     0.0739   0.6334   0.1159
S108     S     0.0297   0.6534   0.1503
H109     H     0.9261   0.6334   0.1159
S110     S     0.9703   0.6534   0.1503
H111     H     0.8841   0.6334   0.0739
S112     S     0.8497   0.6534   0.0297
Ce113     Ce     0.3186   0.1936   0.0
Ti114     Ti     0.2835   0.2415   0.0
Er115     Er     0.2989   0.2989   0.0
Ce116     Ce     0.1936   0.3186   0.0
Ti117     Ti     0.2415   0.2835   0.0
H118     H     0.8841   0.3666   0.9261
S119     S     0.8497   0.3466   0.9703
H120     H     0.9261   0.3666   0.8841
S121     S     0.9703   0.3466   0.8497
H122     H     0.1159   0.3666   0.9261
S123     S     0.1503   0.3466   0.9703
H124     H     0.0739   0.3666   0.8841
S125     S     0.0297   0.3466   0.8497
H126     H     0.1159   0.3666   0.0739
S127     S     0.1503   0.3466   0.0297
H128     H     0.0739   0.3666   0.1159
S129     S     0.0297   0.3466   0.1503
H130     H     0.9261   0.3666   0.1159
S131     S     0.9703   0.3466   0.1503
H132     H     0.8841   0.3666   0.0739
S133     S     0.8497   0.3466   0.0297
Ce134     Ce     0.0   0.3186   0.1936
Ti135     Ti     0.0   0.2835   0.2415
Er136     Er     0.0   0.2989   0.2989
Ce137     Ce     0.0   0.1936   0.3186
Ti138     Ti     0.0   0.2415   0.2835
H139     H     0.9261   0.8841   0.3666
S140     S     0.9703   0.8497   0.3466
H141     H     0.8841   0.9261   0.3666
S142     S     0.8497   0.9703   0.3466
H143     H     0.9261   0.1159   0.3666
S144     S     0.9703   0.1503   0.3466
H145     H     0.8841   0.0739   0.3666
S146     S     0.8497   0.0297   0.3466
H147     H     0.0739   0.1159   0.3666
S148     S     0.0297   0.1503   0.3466
H149     H     0.1159   0.0739   0.3666
S150     S     0.1503   0.0297   0.3466
H151     H     0.1159   0.9261   0.3666
S152     S     0.1503   0.9703   0.3466
H153     H     0.0739   0.8841   0.3666
S154     S     0.0297   0.8497   0.3466
Ce155     Ce     0.1936   0.0   0.3186
Ti156     Ti     0.2415   0.0   0.2835
Er157     Er     0.2989   0.0   0.2989
Ce158     Ce     0.3186   0.0   0.1936
Ti159     Ti     0.2835   0.0   0.2415
H160     H     0.3666   0.1159   0.9261
S161     S     0.3466   0.1503   0.9703
H162     H     0.3666   0.0739   0.8841
S163     S     0.3466   0.0297   0.8497
H164     H     0.3666   0.1159   0.0739
S165     S     0.3466   0.1503   0.0297
H166     H     0.3666   0.0739   0.1159
S167     S     0.3466   0.0297   0.1503
H168     H     0.3666   0.8841   0.9261
S169     S     0.3466   0.8497   0.9703
H170     H     0.3666   0.9261   0.8841
S171     S     0.3466   0.9703   0.8497
H172     H     0.3666   0.9261   0.1159
S173     S     0.3466   0.9703   0.1503
H174     H     0.3666   0.8841   0.0739
S175     S     0.3466   0.8497   0.0297
Ti176     Ti     0.7165   0.0   0.7585
Ce177     Ce     0.6814   0.0   0.8064
Er178     Er     0.7011   0.0   0.7011
Ti179     Ti     0.7585   0.0   0.7165
Ce180     Ce     0.8064   0.0   0.6814
Ti181     Ti     0.0   0.7165   0.7585
Ce182     Ce     0.0   0.6814   0.8064
Er183     Er     0.0   0.7011   0.7011
Ti184     Ti     0.0   0.7585   0.7165
Ce185     Ce     0.0   0.8064   0.6814
Ce186     Ce     0.0   0.1936   0.6814
Ti187     Ti     0.0   0.2415   0.7165
Er188     Er     0.0   0.2989   0.7011
Ti189     Ti     0.0   0.2835   0.7585
Ce190     Ce     0.0   0.3186   0.8064
Ce191     Ce     0.1936   0.0   0.6814
Ti192     Ti     0.2415   0.0   0.7165
Er193     Er     0.2989   0.0   0.7011
Ti194     Ti     0.2835   0.0   0.7585
Ce195     Ce     0.3186   0.0   0.8064
H196     H     0.9261   0.1159   0.6334
S197     S     0.9703   0.1503   0.6534
H198     H     0.8841   0.0739   0.6334
S199     S     0.8497   0.0297   0.6534
H200     H     0.0739   0.1159   0.6334
S201     S     0.0297   0.1503   0.6534
H202     H     0.1159   0.0739   0.6334
S203     S     0.1503   0.0297   0.6534
H204     H     0.8841   0.9261   0.6334
S205     S     0.8497   0.9703   0.6534
H206     H     0.9261   0.8841   0.6334
S207     S     0.9703   0.8497   0.6534
H208     H     0.1159   0.9261   0.6334
S209     S     0.1503   0.9703   0.6534
H210     H     0.0739   0.8841   0.6334
S211     S     0.0297   0.8497   0.6534
Li212     Li     0.8928   0.8928   0.585
Li213     Li     0.8928   0.8928   0.415
He214     He     0.8774   0.8774   0.4703
He215     He     0.8774   0.8774   0.5297
V216     V     0.841   0.841   0.5
Li217     Li     0.3928   0.915   0.3928
Li218     Li     0.3928   0.085   0.3928
V219     V     0.3409   0.0   0.3409
He220     He     0.3774   0.9703   0.3774
He221     He     0.3774   0.0297   0.3774
Li222     Li     0.3928   0.3928   0.915
Li223     Li     0.3928   0.3928   0.085
V224     V     0.3409   0.3409   0.0
He225     He     0.3774   0.3774   0.9703
He226     He     0.3774   0.3774   0.0297
Li227     Li     0.915   0.3928   0.3928
Li228     Li     0.085   0.3928   0.3928
He229     He     0.9703   0.3774   0.3774
He230     He     0.0297   0.3774   0.3774
V231     V     0.0   0.3409   0.3409
Li232     Li     0.915   0.3928   0.6072
Li233     Li     0.085   0.3928   0.6072
V234     V     0.0   0.3409   0.659
He235     He     0.9703   0.3774   0.6226
He236     He     0.0297   0.3774   0.6226
Li237     Li     0.915   0.6072   0.3928
Li238     Li     0.085   0.6072   0.3928
V239     V     0.0   0.659   0.3409
He240     He     0.9703   0.6226   0.3774
He241     He     0.0297   0.6226   0.3774
Li242     Li     0.6072   0.915   0.6072
Li243     Li     0.6072   0.085   0.6072
V244     V     0.659   0.0   0.659
He245     He     0.6226   0.9703   0.6226
He246     He     0.6226   0.0297   0.6226
Li247     Li     0.6072   0.915   0.3928
Li248     Li     0.6072   0.085   0.3928
V249     V     0.659   0.0   0.3409
He250     He     0.6226   0.9703   0.3774
He251     He     0.6226   0.0297   0.3774
Li252     Li     0.3928   0.915   0.6072
Li253     Li     0.3928   0.085   0.6072
V254     V     0.3409   0.0   0.659
He255     He     0.3774   0.9703   0.6226
He256     He     0.3774   0.0297   0.6226
Li257     Li     0.915   0.6072   0.6072
Li258     Li     0.085   0.6072   0.6072
V259     V     0.0   0.659   0.659
He260     He     0.9703   0.6226   0.6226
He261     He     0.0297   0.6226   0.6226
Li262     Li     0.6072   0.3928   0.915
Li263     Li     0.6072   0.3928   0.085
V264     V     0.659   0.3409   0.0
He265     He     0.6226   0.3774   0.9703
He266     He     0.6226   0.3774   0.0297
Li267     Li     0.3928   0.6072   0.915
Li268     Li     0.3928   0.6072   0.085
V269     V     0.3409   0.659   0.0
He270     He     0.3774   0.6226   0.9703
He271     He     0.3774   0.6226   0.0297
Ce272     Ce     0.3064   0.1814   0.5
Ti273     Ti     0.2585   0.2165   0.5
Er274     Er     0.2011   0.2011   0.5
Ce275     Ce     0.1814   0.3064   0.5
Ti276     Ti     0.2165   0.2585   0.5
Ce277     Ce     0.1814   0.5   0.3064
Ti278     Ti     0.2165   0.5   0.2585
Er279     Er     0.2011   0.5   0.2011
Ce280     Ce     0.3064   0.5   0.1814
Ti281     Ti     0.2585   0.5   0.2165
Ti282     Ti     0.5   0.7835   0.2585
Ce283     Ce     0.5   0.8186   0.3064
Er284     Er     0.5   0.7989   0.2011
Ti285     Ti     0.5   0.7415   0.2165
Ce286     Ce     0.5   0.6936   0.1814
H287     H     0.4261   0.6159   0.1334
S288     S     0.4703   0.6503   0.1534
H289     H     0.3841   0.5739   0.1334
S290     S     0.3497   0.5297   0.1534
H291     H     0.3841   0.4261   0.1334
S292     S     0.3497   0.4703   0.1534
H293     H     0.4261   0.3841   0.1334
S294     S     0.4703   0.3497   0.1534
H295     H     0.6159   0.4261   0.1334
S296     S     0.6503   0.4703   0.1534
H297     H     0.5739   0.3841   0.1334
S298     S     0.5297   0.3497   0.1534
H299     H     0.5739   0.6159   0.1334
S300     S     0.5297   0.6503   0.1534
H301     H     0.6159   0.5739   0.1334
S302     S     0.6503   0.5297   0.1534
Ti303     Ti     0.7415   0.5   0.2165
Ce304     Ce     0.6936   0.5   0.1814
Er305     Er     0.7989   0.5   0.2011
Ti306     Ti     0.7835   0.5   0.2585
Ce307     Ce     0.8186   0.5   0.3064
Ti308     Ti     0.7835   0.2585   0.5
Ce309     Ce     0.8186   0.3064   0.5
Er310     Er     0.7989   0.2011   0.5
Ti311     Ti     0.7415   0.2165   0.5
Ce312     Ce     0.6936   0.1814   0.5
H313     H     0.3841   0.1334   0.4261
S314     S     0.3497   0.1534   0.4703
H315     H     0.4261   0.1334   0.3841
S316     S     0.4703   0.1534   0.3497
H317     H     0.6159   0.1334   0.4261
S318     S     0.6503   0.1534   0.4703
H319     H     0.5739   0.1334   0.3841
S320     S     0.5297   0.1534   0.3497
H321     H     0.4261   0.1334   0.6159
S322     S     0.4703   0.1534   0.6503
H323     H     0.3841   0.1334   0.5739
S324     S     0.3497   0.1534   0.5297
H325     H     0.6159   0.1334   0.5739
S326     S     0.6503   0.1534   0.5297
H327     H     0.5739   0.1334   0.6159
S328     S     0.5297   0.1534   0.6503
Ti329     Ti     0.5   0.2165   0.7415
Ce330     Ce     0.5   0.1814   0.6936
Er331     Er     0.5   0.2011   0.7989
Ti332     Ti     0.5   0.2585   0.7835
Ce333     Ce     0.5   0.3064   0.8186
Ti334     Ti     0.2585   0.7835   0.5
Ce335     Ce     0.3064   0.8186   0.5
Er336     Er     0.2011   0.7989   0.5
Ti337     Ti     0.2165   0.7415   0.5
Ce338     Ce     0.1814   0.6936   0.5
H339     H     0.1334   0.6159   0.4261
S340     S     0.1534   0.6503   0.4703
H341     H     0.1334   0.5739   0.3841
S342     S     0.1534   0.5297   0.3497
H343     H     0.1334   0.4261   0.3841
S344     S     0.1534   0.4703   0.3497
H345     H     0.1334   0.3841   0.4261
S346     S     0.1534   0.3497   0.4703
H347     H     0.1334   0.6159   0.5739
S348     S     0.1534   0.6503   0.5297
H349     H     0.1334   0.5739   0.6159
S350     S     0.1534   0.5297   0.6503
H351     H     0.1334   0.4261   0.6159
S352     S     0.1534   0.4703   0.6503
H353     H     0.1334   0.3841   0.5739
S354     S     0.1534   0.3497   0.5297
Ti355     Ti     0.2165   0.5   0.7415
Ce356     Ce     0.1814   0.5   0.6936
Er357     Er     0.2011   0.5   0.7989
Ti358     Ti     0.2585   0.5   0.7835
Ce359     Ce     0.3064   0.5   0.8186
Ti360     Ti     0.7835   0.7415   0.5
Ce361     Ce     0.8186   0.6936   0.5
Er362     Er     0.7989   0.7989   0.5
Ti363     Ti     0.7415   0.7835   0.5
Ce364     Ce     0.6936   0.8186   0.5
H365     H     0.3841   0.8666   0.4261
S366     S     0.3497   0.8466   0.4703
H367     H     0.4261   0.8666   0.3841
S368     S     0.4703   0.8466   0.3497
H369     H     0.6159   0.8666   0.4261
S370     S     0.6503   0.8466   0.4703
H371     H     0.5739   0.8666   0.3841
S372     S     0.5297   0.8466   0.3497
H373     H     0.6159   0.8666   0.5739
S374     S     0.6503   0.8466   0.5297
H375     H     0.5739   0.8666   0.6159
S376     S     0.5297   0.8466   0.6503
H377     H     0.4261   0.8666   0.6159
S378     S     0.4703   0.8466   0.6503
H379     H     0.3841   0.8666   0.5739
S380     S     0.3497   0.8466   0.5297
Ti381     Ti     0.5   0.7835   0.7415
Ce382     Ce     0.5   0.8186   0.6936
Er383     Er     0.5   0.7989   0.7989
Ti384     Ti     0.5   0.7415   0.7835
Ce385     Ce     0.5   0.6936   0.8186
H386     H     0.6159   0.5739   0.8666
S387     S     0.6503   0.5297   0.8466
H388     H     0.5739   0.6159   0.8666
S389     S     0.5297   0.6503   0.8466
H390     H     0.4261   0.6159   0.8666
S391     S     0.4703   0.6503   0.8466
H392     H     0.3841   0.5739   0.8666
S393     S     0.3497   0.5297   0.8466
H394     H     0.3841   0.4261   0.8666
S395     S     0.3497   0.4703   0.8466
H396     H     0.4261   0.3841   0.8666
S397     S     0.4703   0.3497   0.8466
H398     H     0.6159   0.4261   0.8666
S399     S     0.6503   0.4703   0.8466
H400     H     0.5739   0.3841   0.8666
S401     S     0.5297   0.3497   0.8466
Ti402     Ti     0.7415   0.5   0.7835
Ce403     Ce     0.6936   0.5   0.8186
Er404     Er     0.7989   0.5   0.7989
Ti405     Ti     0.7835   0.5   0.7415
Ce406     Ce     0.8186   0.5   0.6936
H407     H     0.8666   0.4261   0.6159
S408     S     0.8466   0.4703   0.6503
H409     H     0.8666   0.3841   0.5739
S410     S     0.8466   0.3497   0.5297
H411     H     0.8666   0.5739   0.6159
S412     S     0.8466   0.5297   0.6503
H413     H     0.8666   0.6159   0.5739
S414     S     0.8466   0.6503   0.5297
H415     H     0.8666   0.6159   0.4261
S416     S     0.8466   0.6503   0.4703
H417     H     0.8666   0.5739   0.3841
S418     S     0.8466   0.5297   0.3497
H419     H     0.8666   0.3841   0.4261
S420     S     0.8466   0.3497   0.4703
H421     H     0.8666   0.4261   0.3841
S422     S     0.8466   0.4703   0.3497
Ce423     Ce     0.5   0.1814   0.3064
Ti424     Ti     0.5   0.2165   0.2585
Er425     Er     0.5   0.2011   0.2011
Ce426     Ce     0.5   0.3064   0.1814
Ti427     Ti     0.5   0.2585   0.2165
Li428     Li     0.6072   0.6072   0.915
Li429     Li     0.6072   0.6072   0.085
V430     V     0.659   0.659   0.0
He431     He     0.6226   0.6226   0.9703
He432     He     0.6226   0.6226   0.0297
loop_
_geom_bond_atom_site_label_1
_geom_bond_atom_site_label_2
_geom_bond_distance
_geom_bond_site_symmetry_2
_ccdc_geom_bond_type
Li1     He4    9.999   .     S
Li1     H105    10.001   .     S
Li1     H107    10.001   .     S
Li2     He3    9.999   .     S
Li2     H126    10.001   .     S
Li2     H128    10.001   .     S
He3     He4    10.0   .     S
He3     V5    10.0   .     S
He4     V5    10.0   .     S
V5     Er279    10.0   .     S
Li6     He9    9.999   .     S
Li6     H79    10.001   .     S
Li6     H81    10.001   .     S
Li7     He8    9.999   .     S
Li7     H164    10.001   .     S
Li7     H166    10.001   .     S
He8     He9    10.0   .     S
He8     V10    10.0   .     S
He9     V10    10.0   .     S
V10     Er425    10.0   .     S
Li11     He14    9.999   .     S
Li11     H200    10.001   .     S
Li11     H202    10.001   .     S
Li12     He13    9.999   .     S
Li12     H147    10.001   .     S
Li12     H149    10.001   .     S
He13     He14    10.0   .     S
He13     V15    10.0   .     S
He14     V15    10.0   .     S
V15     Er274    10.0   .     S
Li16     He19    9.999   .     S
Li16     H208    10.001   .     S
Li16     H210    10.001   .     S
Li17     He18    9.999   .     S
Li17     H151    10.001   .     S
Li17     H153    10.001   .     S
He18     He19    10.0   .     S
He18     V20    10.0   .     S
He19     V20    10.0   .     S
V20     Er336    10.0   .     S
Li21     He24    9.999   .     S
Li21     H196    10.001   .     S
Li21     H198    10.001   .     S
Li22     He23    9.999   .     S
Li22     H143    10.001   .     S
Li22     H145    10.001   .     S
He23     He24    10.0   .     S
He23     V25    10.0   .     S
He24     V25    10.0   .     S
V25     Er310    10.0   .     S
Li26     He29    9.999   .     S
Li26     H75    10.001   .     S
Li26     H77    10.001   .     S
Li27     He28    9.999   .     S
Li27     H172    10.001   .     S
Li27     H174    10.001   .     S
He28     He29    10.0   .     S
He28     V30    10.0   .     S
He29     V30    10.0   .     S
V30     Er284    10.0   .     S
Li31     He34    9.999   .     S
Li31     H83    10.001   .     S
Li31     H85    10.001   .     S
Li32     He33    9.999   .     S
Li32     H160    10.001   .     S
Li32     H162    10.001   .     S
He33     He34    10.0   .     S
He33     V35    10.0   .     S
He34     V35    10.0   .     S
V35     Er331    10.0   .     S
Li36     He39    9.999   .     S
Li36     H101    10.001   .     S
Li36     H103    10.001   .     S
Li37     He38    9.999   .     S
Li37     H122    10.001   .     S
Li37     H124    10.001   .     S
He38     He39    10.0   .     S
He38     V40    10.0   .     S
He39     V40    10.0   .     S
V40     Er357    10.0   .     S
Li41     He44    9.999   .     S
Li41     H109    10.001   .     S
Li41     H111    10.001   .     S
Li42     He43    9.999   .     S
Li42     H130    10.001   .     S
Li42     H132    10.001   .     S
He43     He44    10.0   .     S
He43     V45    10.0   .     S
He44     V45    10.0   .     S
V45     Er305    10.0   .     S
Li46     He49    9.999   .     S
Li46     H97    10.001   .     S
Li46     H99    10.001   .     S
Li47     He48    9.999   .     S
Li47     H118    10.001   .     S
Li47     H120    10.001   .     S
He48     He49    10.0   .     S
He48     V50    10.0   .     S
He49     V50    10.0   .     S
V50     Er404    10.0   .     S
Li51     He54    9.999   .     S
Li51     H71    10.001   .     S
Li51     H73    10.001   .     S
Li52     He53    9.999   .     S
Li52     H168    10.001   .     S
Li52     H170    10.001   .     S
He53     He54    10.0   .     S
He53     V55    10.0   .     S
He54     V55    10.0   .     S
V55     Er383    10.0   .     S
Ti56     Ce57    9.999   .     S
Ti56     Ti59    10.0   .     S
Ti56     Er58    9.999   .     S
Ce57     S112    10.001   .     S
Ce57     S98    10.001   1_554     S
Er58     Ti59    9.999   .     S
Er58     V430    10.0   .     S
Ti59     Ce60    9.999   .     S
Ce60     S72    10.001   1_554     S
Ce60     S78    10.001   .     S
Ce61     Ti62    9.999   .     S
Ce61     S76    10.001   1_545     S
Ce61     S80    10.001   .     S
Ti62     Ti64    10.0   .     S
Ti62     Er63    9.999   .     S
Er63     Ti64    9.999   .     S
Er63     V249    10.0   .     S
Ti64     Ce65    9.999   .     S
Ce65     S146    10.001   .     S
Ce65     S142    10.001   1_545     S
Ce66     Ti67    9.999   .     S
Ce66     S82    10.001   .     S
Ce66     S84    10.001   1_554     S
Ti67     Ti69    10.0   .     S
Ti67     Er68    9.999   .     S
Er68     Ti69    9.999   .     S
Er68     V264    10.0   .     S
Ti69     Ce70    9.999   .     S
Ce70     S119    10.001   1_554     S
Ce70     S133    10.001   .     S
H71     S72    10.0   .     S
H71     H73    10.0   .     S
S72     Ce60    10.001   1_556     S
S72     S78    10.0   1_556     S
H73     S74    10.0   .     S
S74     S86    10.0   1_565     S
S74     Ce177    10.001   1_565     S
H75     S76    10.0   .     S
H75     H77    10.0   .     S
S76     Ce61    10.001   1_565     S
S76     S80    10.0   1_565     S
H77     S78    10.0   .     S
S78     S72    10.0   1_554     S
H79     S80    10.0   .     S
H79     H81    10.0   .     S
S80     S76    10.0   1_545     S
H81     S82    10.0   .     S
S82     S84    10.0   1_554     S
H83     S84    10.0   .     S
H83     H85    10.0   .     S
S84     Ce66    10.001   1_556     S
S84     S82    10.0   1_556     S
H85     S86    10.0   .     S
S86     S74    10.0   1_545     S
S86     Ce177    10.001   .     S
Ce87     Ti88    9.999   .     S
Ce87     S102    10.001   1_554     S
Ce87     S106    10.001   .     S
Ti88     Ti90    10.0   .     S
Ti88     Er89    9.999   .     S
Er89     Ti90    9.999   .     S
Er89     V269    10.0   .     S
Ti90     Ce91    9.999   .     S
Ce91     S175    10.001   .     S
Ce91     S169    10.001   1_554     S
Ce92     Ti93    9.999   .     S
Ce92     S108    10.001   .     S
Ce92     S110    10.001   1_455     S
Ti93     Ti95    10.0   .     S
Ti93     Er94    9.999   .     S
Er94     Ti95    9.999   .     S
Er94     V239    10.0   .     S
Ti95     Ce96    9.999   .     S
Ce96     S140    10.001   1_455     S
Ce96     S154    10.001   .     S
H97     S98    10.0   .     S
H97     H99    10.0   .     S
S98     Ce57    10.001   1_556     S
S98     S112    10.0   1_556     S
H99     S100    10.0   .     S
S100     S104    10.0   1_655     S
S100     Ce182    10.001   1_655     S
H101     S102    10.0   .     S
H101     H103    10.0   .     S
S102     Ce87    10.001   1_556     S
S102     S106    10.0   1_556     S
H103     S104    10.0   .     S
S104     S100    10.0   1_455     S
S104     Ce182    10.001   .     S
H105     S106    10.0   .     S
H105     H107    10.0   .     S
S106     S102    10.0   1_554     S
H107     S108    10.0   .     S
S108     S110    10.0   1_455     S
H109     S110    10.0   .     S
H109     H111    10.0   .     S
S110     Ce92    10.001   1_655     S
S110     S108    10.0   1_655     S
H111     S112    10.0   .     S
S112     S98    10.0   1_554     S
Ce113     Ti114    9.999   .     S
Ce113     S161    10.001   1_554     S
Ce113     S165    10.001   .     S
Ti114     Ti117    10.0   .     S
Ti114     Er115    9.999   .     S
Er115     Ti117    9.999   .     S
Er115     V224    10.0   .     S
Ce116     Ti117    9.999   .     S
Ce116     S127    10.001   .     S
Ce116     S123    10.001   1_554     S
H118     S119    10.0   .     S
H118     H120    10.0   .     S
S119     Ce70    10.001   1_556     S
S119     S133    10.0   1_556     S
H120     S121    10.0   .     S
S121     S125    10.0   1_655     S
S121     Ce190    10.001   1_655     S
H122     S123    10.0   .     S
H122     H124    10.0   .     S
S123     Ce116    10.001   1_556     S
S123     S127    10.0   1_556     S
H124     S125    10.0   .     S
S125     S121    10.0   1_455     S
S125     Ce190    10.001   .     S
H126     S127    10.0   .     S
H126     H128    10.0   .     S
S127     S123    10.0   1_554     S
H128     S129    10.0   .     S
S129     Ce134    10.001   .     S
S129     S131    10.0   1_455     S
H130     S131    10.0   .     S
H130     H132    10.0   .     S
S131     Ce134    10.001   1_655     S
S131     S129    10.0   1_655     S
H132     S133    10.0   .     S
S133     S119    10.0   1_554     S
Ce134     S131    10.001   1_455     S
Ce134     Ti135    9.999   .     S
Ti135     Ti138    10.0   .     S
Ti135     Er136    9.999   .     S
Er136     Ti138    9.999   .     S
Er136     V231    10.0   .     S
Ce137     Ti138    9.999   .     S
Ce137     S148    10.001   .     S
Ce137     S144    10.001   1_455     S
H139     Li213    10.001   .     S
H139     S140    10.0   .     S
H139     H141    10.0   .     S
S140     Ce96    10.001   1_655     S
S140     S154    10.0   1_655     S
H141     Li213    10.001   .     S
H141     S142    10.0   .     S
S142     Ce65    10.001   1_565     S
S142     S146    10.0   1_565     S
H143     S144    10.0   .     S
H143     H145    10.0   .     S
S144     Ce137    10.001   1_655     S
S144     S148    10.0   1_655     S
H145     S146    10.0   .     S
S146     S142    10.0   1_545     S
H147     S148    10.0   .     S
H147     H149    10.0   .     S
S148     S144    10.0   1_455     S
H149     S150    10.0   .     S
S150     Ce155    10.001   .     S
S150     S152    10.0   1_545     S
H151     S152    10.0   .     S
H151     H153    10.0   .     S
S152     Ce155    10.001   1_565     S
S152     S150    10.0   1_565     S
H153     S154    10.0   .     S
S154     S140    10.0   1_455     S
Ce155     S152    10.001   1_545     S
Ce155     Ti156    9.999   .     S
Ti156     Er157    9.999   .     S
Ti156     Ti159    10.0   .     S
Er157     Ti159    9.999   .     S
Er157     V219    10.0   .     S
Ce158     Ti159    9.999   .     S
Ce158     S167    10.001   .     S
Ce158     S173    10.001   1_545     S
H160     S161    10.0   .     S
H160     H162    10.0   .     S
S161     Ce113    10.001   1_556     S
S161     S165    10.0   1_556     S
H162     S163    10.0   .     S
S163     S171    10.0   1_545     S
S163     Ce195    10.001   .     S
H164     S165    10.0   .     S
H164     H166    10.0   .     S
S165     S161    10.0   1_554     S
H166     S167    10.0   .     S
S167     S173    10.0   1_545     S
H168     S169    10.0   .     S
H168     H170    10.0   .     S
S169     Ce91    10.001   1_556     S
S169     S175    10.0   1_556     S
H170     S171    10.0   .     S
S171     S163    10.0   1_565     S
S171     Ce195    10.001   1_565     S
H172     S173    10.0   .     S
H172     H174    10.0   .     S
S173     Ce158    10.001   1_565     S
S173     S167    10.0   1_565     S
H174     S175    10.0   .     S
S175     S169    10.0   1_554     S
Ti176     Ce177    9.999   .     S
Ti176     Ti179    10.0   .     S
Ti176     Er178    9.999   .     S
Ce177     S74    10.001   1_545     S
Er178     Ti179    9.999   .     S
Er178     V244    10.0   .     S
Ti179     Ce180    9.999   .     S
Ce180     S205    10.001   1_545     S
Ce180     S199    10.001   .     S
Ti181     Ce182    9.999   .     S
Ti181     Er183    9.999   .     S
Ti181     Ti184    10.0   .     S
Ce182     S100    10.001   1_455     S
Er183     Ti184    9.999   .     S
Er183     V259    10.0   .     S
Ti184     Ce185    9.999   .     S
Ce185     S211    10.001   .     S
Ce185     S207    10.001   1_455     S
Ce186     Ti187    9.999   .     S
Ce186     S197    10.001   1_455     S
Ce186     S201    10.001   .     S
Ti187     Ti189    10.0   .     S
Ti187     Er188    9.999   .     S
Er188     Ti189    9.999   .     S
Er188     V234    10.0   .     S
Ti189     Ce190    9.999   .     S
Ce190     S121    10.001   1_455     S
Ce191     Ti192    9.999   .     S
Ce191     S203    10.001   .     S
Ce191     S209    10.001   1_545     S
Ti192     Ti194    10.0   .     S
Ti192     Er193    9.999   .     S
Er193     Ti194    9.999   .     S
Er193     V254    10.0   .     S
Ti194     Ce195    9.999   .     S
Ce195     S171    10.001   1_545     S
H196     S197    10.0   .     S
H196     H198    10.0   .     S
S197     Ce186    10.001   1_655     S
S197     S201    10.0   1_655     S
H198     S199    10.0   .     S
S199     S205    10.0   1_545     S
H200     S201    10.0   .     S
H200     H202    10.0   .     S
S201     S197    10.0   1_455     S
H202     S203    10.0   .     S
S203     S209    10.0   1_545     S
H204     Li212    10.001   .     S
H204     S205    10.0   .     S
H204     H206    10.0   .     S
S205     Ce180    10.001   1_565     S
S205     S199    10.0   1_565     S
H206     Li212    10.001   .     S
H206     S207    10.0   .     S
S207     Ce185    10.001   1_655     S
S207     S211    10.0   1_655     S
H208     S209    10.0   .     S
H208     H210    10.0   .     S
S209     Ce191    10.001   1_565     S
S209     S203    10.0   1_565     S
H210     S211    10.0   .     S
S211     S207    10.0   1_455     S
Li212     He215    9.999   .     S
Li213     He214    9.999   .     S
He214     He215    10.0   .     S
He214     V216    10.0   .     S
He215     V216    10.0   .     S
V216     Er362    10.0   .     S
Li217     He220    9.999   .     S
Li217     H365    10.001   .     S
Li217     H367    10.001   .     S
Li218     He221    9.999   .     S
Li218     H313    10.001   .     S
Li218     H315    10.001   .     S
V219     He220    10.0   1_545     S
V219     He221    10.0   .     S
He220     V219    10.0   1_565     S
He220     He221    10.0   1_565     S
He221     He220    10.0   1_545     S
Li222     He225    9.999   .     S
Li222     H394    10.001   .     S
Li222     H396    10.001   .     S
Li223     He226    9.999   .     S
Li223     H291    10.001   .     S
Li223     H293    10.001   .     S
V224     He226    10.0   .     S
V224     He225    10.0   1_554     S
He225     V224    10.0   1_556     S
He225     He226    10.0   1_556     S
He226     He225    10.0   1_554     S
Li227     He229    9.999   .     S
Li227     H419    10.001   .     S
Li227     H421    10.001   .     S
Li228     He230    9.999   .     S
Li228     H343    10.001   .     S
Li228     H345    10.001   .     S
He229     He230    10.0   1_655     S
He229     V231    10.0   1_655     S
He230     He229    10.0   1_455     S
He230     V231    10.0   .     S
V231     He229    10.0   1_455     S
Li232     He235    9.999   .     S
Li232     H407    10.001   .     S
Li232     H409    10.001   .     S
Li233     He236    9.999   .     S
Li233     H351    10.001   .     S
Li233     H353    10.001   .     S
V234     He235    10.0   1_455     S
V234     He236    10.0   .     S
He235     V234    10.0   1_655     S
He235     He236    10.0   1_655     S
He236     He235    10.0   1_455     S
Li237     He240    9.999   .     S
Li237     H415    10.001   .     S
Li237     H417    10.001   .     S
Li238     He241    9.999   .     S
Li238     H339    10.001   .     S
Li238     H341    10.001   .     S
V239     He240    10.0   1_455     S
V239     He241    10.0   .     S
He240     V239    10.0   1_655     S
He240     He241    10.0   1_655     S
He241     He240    10.0   1_455     S
Li242     He245    9.999   .     S
Li242     H373    10.001   .     S
Li242     H375    10.001   .     S
Li243     He246    9.999   .     S
Li243     H325    10.001   .     S
Li243     H327    10.001   .     S
V244     He245    10.0   1_545     S
V244     He246    10.0   .     S
He245     V244    10.0   1_565     S
He245     He246    10.0   1_565     S
He246     He245    10.0   1_545     S
Li247     He250    9.999   .     S
Li247     H369    10.001   .     S
Li247     H371    10.001   .     S
Li248     He251    9.999   .     S
Li248     H317    10.001   .     S
Li248     H319    10.001   .     S
V249     He251    10.0   .     S
V249     He250    10.0   1_545     S
He250     V249    10.0   1_565     S
He250     He251    10.0   1_565     S
He251     He250    10.0   1_545     S
Li252     He255    9.999   .     S
Li252     H377    10.001   .     S
Li252     H379    10.001   .     S
Li253     He256    9.999   .     S
Li253     H321    10.001   .     S
Li253     H323    10.001   .     S
V254     He256    10.0   .     S
V254     He255    10.0   1_545     S
He255     V254    10.0   1_565     S
He255     He256    10.0   1_565     S
He256     He255    10.0   1_545     S
Li257     He260    9.999   .     S
Li257     H411    10.001   .     S
Li257     H413    10.001   .     S
Li258     He261    9.999   .     S
Li258     H347    10.001   .     S
Li258     H349    10.001   .     S
V259     He261    10.0   .     S
V259     He260    10.0   1_455     S
He260     V259    10.0   1_655     S
He260     He261    10.0   1_655     S
He261     He260    10.0   1_455     S
Li262     He265    9.999   .     S
Li262     H398    10.001   .     S
Li262     H400    10.001   .     S
Li263     He266    9.999   .     S
Li263     H295    10.001   .     S
Li263     H297    10.001   .     S
V264     He265    10.0   1_554     S
V264     He266    10.0   .     S
He265     V264    10.0   1_556     S
He265     He266    10.0   1_556     S
He266     He265    10.0   1_554     S
Li267     He270    9.999   .     S
Li267     H390    10.001   .     S
Li267     H392    10.001   .     S
Li268     He271    9.999   .     S
Li268     H287    10.001   .     S
Li268     H289    10.001   .     S
V269     He270    10.0   1_554     S
V269     He271    10.0   .     S
He270     V269    10.0   1_556     S
He270     He271    10.0   1_556     S
He271     He270    10.0   1_554     S
Ce272     S324    10.001   .     S
Ce272     S314    10.001   .     S
Ce272     Ti273    9.999   .     S
Ti273     Ti276    10.0   .     S
Ti273     Er274    9.999   .     S
Er274     Ti276    9.999   .     S
Ce275     Ti276    9.999   .     S
Ce275     S346    10.001   .     S
Ce275     S354    10.001   .     S
Ce277     S342    10.001   .     S
Ce277     S344    10.001   .     S
Ce277     Ti278    9.999   .     S
Ti278     Ti281    10.0   .     S
Ti278     Er279    9.999   .     S
Er279     Ti281    9.999   .     S
Ce280     Ti281    9.999   .     S
Ce280     S292    10.001   .     S
Ce280     S290    10.001   .     S
Ti282     Ce283    9.999   .     S
Ti282     Er284    9.999   .     S
Ti282     Ti285    10.0   .     S
Ce283     S372    10.001   .     S
Ce283     S368    10.001   .     S
Er284     Ti285    9.999   .     S
Ti285     Ce286    9.999   .     S
Ce286     S288    10.001   .     S
Ce286     S300    10.001   .     S
H287     S288    10.0   .     S
H287     H289    10.0   .     S
S288     S300    10.0   .     S
H289     S290    10.0   .     S
S290     S292    10.0   .     S
H291     S292    10.0   .     S
H291     H293    10.0   .     S
H293     S294    10.0   .     S
S294     S298    10.0   .     S
S294     Ce426    10.001   .     S
H295     S296    10.0   .     S
H295     H297    10.0   .     S
S296     S302    10.0   .     S
S296     Ce304    10.001   .     S
H297     S298    10.0   .     S
S298     Ce426    10.001   .     S
H299     Li429    10.001   .     S
H299     S300    10.0   .     S
H299     H301    10.0   .     S
H301     Li429    10.001   .     S
H301     S302    10.0   .     S
S302     Ce304    10.001   .     S
Ti303     Ce304    9.999   .     S
Ti303     Ti306    10.0   .     S
Ti303     Er305    9.999   .     S
Er305     Ti306    9.999   .     S
Ti306     Ce307    9.999   .     S
Ce307     S422    10.001   .     S
Ce307     S418    10.001   .     S
Ti308     Ce309    9.999   .     S
Ti308     Er310    9.999   .     S
Ti308     Ti311    10.0   .     S
Ce309     S410    10.001   .     S
Ce309     S420    10.001   .     S
Er310     Ti311    9.999   .     S
Ti311     Ce312    9.999   .     S
Ce312     S318    10.001   .     S
Ce312     S326    10.001   .     S
H313     S314    10.0   .     S
H313     H315    10.0   .     S
S314     S324    10.0   .     S
H315     S316    10.0   .     S
S316     S320    10.0   .     S
S316     Ce423    10.001   .     S
H317     S318    10.0   .     S
H317     H319    10.0   .     S
S318     S326    10.0   .     S
H319     S320    10.0   .     S
S320     Ce423    10.001   .     S
H321     S322    10.0   .     S
H321     H323    10.0   .     S
S322     S328    10.0   .     S
S322     Ce330    10.001   .     S
H323     S324    10.0   .     S
H325     S326    10.0   .     S
H325     H327    10.0   .     S
H327     S328    10.0   .     S
S328     Ce330    10.001   .     S
Ti329     Ce330    9.999   .     S
Ti329     Ti332    10.0   .     S
Ti329     Er331    9.999   .     S
Er331     Ti332    9.999   .     S
Ti332     Ce333    9.999   .     S
Ce333     S397    10.001   .     S
Ce333     S401    10.001   .     S
Ti334     Ce335    9.999   .     S
Ti334     Er336    9.999   .     S
Ti334     Ti337    10.0   .     S
Ce335     S366    10.001   .     S
Ce335     S380    10.001   .     S
Er336     Ti337    9.999   .     S
Ti337     Ce338    9.999   .     S
Ce338     S348    10.001   .     S
Ce338     S340    10.001   .     S
H339     S340    10.0   .     S
H339     H341    10.0   .     S
S340     S348    10.0   .     S
H341     S342    10.0   .     S
S342     S344    10.0   .     S
H343     S344    10.0   .     S
H343     H345    10.0   .     S
H345     S346    10.0   .     S
S346     S354    10.0   .     S
H347     S348    10.0   .     S
H347     H349    10.0   .     S
H349     S350    10.0   .     S
S350     S352    10.0   .     S
S350     Ce356    10.001   .     S
H351     S352    10.0   .     S
H351     H353    10.0   .     S
S352     Ce356    10.001   .     S
H353     S354    10.0   .     S
Ti355     Ce356    9.999   .     S
Ti355     Ti358    10.0   .     S
Ti355     Er357    9.999   .     S
Er357     Ti358    9.999   .     S
Ti358     Ce359    9.999   .     S
Ce359     S393    10.001   .     S
Ce359     S395    10.001   .     S
Ti360     Ce361    9.999   .     S
Ti360     Ti363    10.0   .     S
Ti360     Er362    9.999   .     S
Ce361     S416    10.001   .     S
Ce361     S414    10.001   .     S
Er362     Ti363    9.999   .     S
Ti363     Ce364    9.999   .     S
Ce364     S374    10.001   .     S
Ce364     S370    10.001   .     S
H365     S366    10.0   .     S
H365     H367    10.0   .     S
S366     S380    10.0   .     S
H367     S368    10.0   .     S
S368     S372    10.0   .     S
H369     S370    10.0   .     S
H369     H371    10.0   .     S
S370     S374    10.0   .     S
H371     S372    10.0   .     S
H373     S374    10.0   .     S
H373     H375    10.0   .     S
H375     S376    10.0   .     S
S376     S378    10.0   .     S
S376     Ce382    10.001   .     S
H377     S378    10.0   .     S
H377     H379    10.0   .     S
S378     Ce382    10.001   .     S
H379     S380    10.0   .     S
Ti381     Ce382    9.999   .     S
Ti381     Ti384    10.0   .     S
Ti381     Er383    9.999   .     S
Er383     Ti384    9.999   .     S
Ti384     Ce385    9.999   .     S
Ce385     S389    10.001   .     S
Ce385     S391    10.001   .     S
H386     Li428    10.001   .     S
H386     S387    10.0   .     S
H386     H388    10.0   .     S
S387     S399    10.0   .     S
S387     Ce403    10.001   .     S
H388     Li428    10.001   .     S
H388     S389    10.0   .     S
S389     S391    10.0   .     S
H390     S391    10.0   .     S
H390     H392    10.0   .     S
H392     S393    10.0   .     S
S393     S395    10.0   .     S
H394     S395    10.0   .     S
H394     H396    10.0   .     S
H396     S397    10.0   .     S
S397     S401    10.0   .     S
H398     S399    10.0   .     S
H398     H400    10.0   .     S
S399     Ce403    10.001   .     S
H400     S401    10.0   .     S
Ti402     Ce403    9.999   .     S
Ti402     Er404    9.999   .     S
Ti402     Ti405    10.0   .     S
Er404     Ti405    9.999   .     S
Ti405     Ce406    9.999   .     S
Ce406     S412    10.001   .     S
Ce406     S408    10.001   .     S
H407     S408    10.0   .     S
H407     H409    10.0   .     S
S408     S412    10.0   .     S
H409     S410    10.0   .     S
S410     S420    10.0   .     S
H411     S412    10.0   .     S
H411     H413    10.0   .     S
H413     S414    10.0   .     S
S414     S416    10.0   .     S
H415     S416    10.0   .     S
H415     H417    10.0   .     S
H417     S418    10.0   .     S
S418     S422    10.0   .     S
H419     S420    10.0   .     S
H419     H421    10.0   .     S
H421     S422    10.0   .     S
Ce423     Ti424    9.999   .     S
Ti424     Ti427    10.0   .     S
Ti424     Er425    9.999   .     S
Er425     Ti427    9.999   .     S
Ce426     Ti427    9.999   .     S
Li428     He431    9.999   .     S
Li429     He432    9.999   .     S
V430     He431    10.0   1_554     S
V430     He432    10.0   .     S
He431     V430    10.0   1_556     S
He431     He432    10.0   1_556     S
He432     He431    10.0   1_554     S
