data_omy
_audit_creation_date              2020-02-02
_audit_creation_method            'Pymatgen'
_symmetry_space_group_name_H-M    'P1'
_symmetry_Int_Tables_number       1
loop_
_symmetry_equiv_pos_as_xyz
  x,y,z
_cell_length_a                    37.2362
_cell_length_b                    37.2362
_cell_length_c                    37.2362
_cell_angle_alpha                 90.0
_cell_angle_beta                 90.0
_cell_angle_gamma                 90.0
loop_
_atom_site_label
_atom_site_type_symbol
_atom_site_fract_x
_atom_site_fract_y
_atom_site_fract_z
Er1     Er     0.345   0.345   0.155
Er2     Er     0.345   0.155   0.345
Er3     Er     0.155   0.155   0.155
Er4     Er     0.155   0.345   0.345
Er5     Er     0.655   0.345   0.845
Er6     Er     0.845   0.345   0.655
Er7     Er     0.655   0.155   0.655
Er8     Er     0.845   0.155   0.845
Er9     Er     0.655   0.845   0.345
Er10     Er     0.845   0.655   0.345
Er11     Er     0.655   0.655   0.155
Er12     Er     0.845   0.845   0.155
Er13     Er     0.345   0.655   0.845
Er14     Er     0.345   0.845   0.655
Er15     Er     0.155   0.655   0.655
Er16     Er     0.155   0.845   0.845
V17     V     0.0   0.0   0.0
V18     V     0.0   0.5   0.5
V19     V     0.5   0.0   0.5
V20     V     0.5   0.5   0.0
loop_
_geom_bond_atom_site_label_1
_geom_bond_atom_site_label_2
_geom_bond_distance
_geom_bond_site_symmetry_2
_ccdc_geom_bond_type
Er1     V20    10.0   .     S
Er1     Er3    10.0   .     S
Er1     Er4    10.0   .     S
Er1     Er2    10.0   .     S
Er2     V19    10.0   .     S
Er2     Er3    10.0   .     S
Er2     Er4    10.0   .     S
Er3     V17    10.0   .     S
Er3     Er4    10.0   .     S
Er4     V18    10.0   .     S
Er5     V20    10.0   1_556     S
Er5     Er6    10.0   .     S
Er5     Er8    10.0   .     S
Er5     Er7    10.0   .     S
Er6     V18    10.0   1_655     S
Er6     Er8    10.0   .     S
Er6     Er7    10.0   .     S
Er7     V19    10.0   .     S
Er7     Er8    10.0   .     S
Er8     V17    10.0   1_656     S
Er9     V19    10.0   1_565     S
Er9     Er10    10.0   .     S
Er9     Er12    10.0   .     S
Er9     Er11    10.0   .     S
Er10     V18    10.0   1_655     S
Er10     Er12    10.0   .     S
Er10     Er11    10.0   .     S
Er11     V20    10.0   .     S
Er11     Er12    10.0   .     S
Er12     V17    10.0   1_665     S
Er13     V20    10.0   1_556     S
Er13     Er14    10.0   .     S
Er13     Er16    10.0   .     S
Er13     Er15    10.0   .     S
Er14     V19    10.0   1_565     S
Er14     Er16    10.0   .     S
Er14     Er15    10.0   .     S
Er15     V18    10.0   .     S
Er15     Er16    10.0   .     S
Er16     V17    10.0   1_566     S
V17     Er8    10.0   1_454     S
V17     Er12    10.0   1_445     S
V17     Er16    10.0   1_544     S
V18     Er6    10.0   1_455     S
V18     Er10    10.0   1_455     S
V19     Er9    10.0   1_545     S
V19     Er14    10.0   1_545     S
V20     Er5    10.0   1_554     S
V20     Er13    10.0   1_554     S
