data_ooc
_audit_creation_date              2020-02-02
_audit_creation_method            'Pymatgen'
_symmetry_space_group_name_H-M    'P1'
_symmetry_Int_Tables_number       1
loop_
_symmetry_equiv_pos_as_xyz
  x,y,z
_cell_length_a                    15.1207
_cell_length_b                    13.1328
_cell_length_c                    18.6424
_cell_angle_alpha                 90.0
_cell_angle_beta                 110.0185
_cell_angle_gamma                 90.0
loop_
_atom_site_label
_atom_site_type_symbol
_atom_site_fract_x
_atom_site_fract_y
_atom_site_fract_z
V1     V     0.6261   0.5   0.7872
V2     V     0.3739   0.5   0.2128
V3     V     0.1261   0.0   0.7872
V4     V     0.8739   0.0   0.2128
loop_
_geom_bond_atom_site_label_1
_geom_bond_atom_site_label_2
_geom_bond_distance
_geom_bond_site_symmetry_2
_ccdc_geom_bond_type
V1     V4    9.987   1_566     S
V1     V4    9.987   1_556     S
V1     V2    10.064   .     S
V1     V2    9.908   1_556     S
V1     V3    10.014   1_565     S
V1     V3    10.014   1_665     S
V1     V3    10.014   1_655     S
V1     V3    10.014   .     S
V2     V3    9.987   1_564     S
V2     V3    9.987   1_554     S
V2     V1    9.908   1_554     S
V2     V4    10.014   1_465     S
V2     V4    10.014   1_565     S
V2     V4    10.014   .     S
V2     V4    10.014   1_455     S
V3     V2    9.987   1_546     S
V3     V2    9.987   1_556     S
V3     V4    10.064   1_455     S
V3     V4    9.908   1_456     S
V3     V1    10.014   1_545     S
V3     V1    10.014   1_445     S
V3     V1    10.014   1_455     S
V4     V1    9.987   1_544     S
V4     V1    9.987   1_554     S
V4     V3    10.064   1_655     S
V4     V3    9.908   1_654     S
V4     V2    10.014   1_645     S
V4     V2    10.014   1_545     S
V4     V2    10.014   1_655     S
