data_pcbe
_audit_creation_date              2020-02-02
_audit_creation_method            'Pymatgen'
_symmetry_space_group_name_H-M    'P1'
_symmetry_Int_Tables_number       1
loop_
_symmetry_equiv_pos_as_xyz
  x,y,z
_cell_length_a                    37.7124
_cell_length_b                    37.7124
_cell_length_c                    37.7124
_cell_angle_alpha                 90.0
_cell_angle_beta                 90.0
_cell_angle_gamma                 90.0
loop_
_atom_site_label
_atom_site_type_symbol
_atom_site_fract_x
_atom_site_fract_y
_atom_site_fract_z
V1     V     0.8125   0.0   0.8125
V2     V     0.1875   0.0   0.8125
V3     V     0.0   0.1875   0.8125
V4     V     0.0   0.8125   0.8125
V5     V     0.8125   0.0   0.1875
V6     V     0.8125   0.1875   0.0
V7     V     0.8125   0.8125   0.0
V8     V     0.0   0.8125   0.1875
V9     V     0.1875   0.8125   0.0
V10     V     0.0   0.1875   0.1875
Er11     Er     0.25   0.25   0.25
V12     V     0.1875   0.0   0.1875
Er13     Er     0.25   0.75   0.25
Er14     Er     0.75   0.25   0.25
Er15     Er     0.75   0.75   0.25
V16     V     0.1875   0.1875   0.0
Er17     Er     0.25   0.75   0.75
Er18     Er     0.25   0.25   0.75
Er19     Er     0.75   0.25   0.75
Er20     Er     0.75   0.75   0.75
V21     V     0.5   0.6875   0.6875
V22     V     0.3125   0.5   0.6875
V23     V     0.5   0.3125   0.6875
V24     V     0.6875   0.5   0.6875
V25     V     0.5   0.3125   0.3125
V26     V     0.6875   0.5   0.3125
V27     V     0.5   0.6875   0.3125
V28     V     0.3125   0.5   0.3125
V29     V     0.6875   0.6875   0.5
V30     V     0.6875   0.3125   0.5
V31     V     0.3125   0.6875   0.5
V32     V     0.3125   0.3125   0.5
loop_
_geom_bond_atom_site_label_1
_geom_bond_atom_site_label_2
_geom_bond_distance
_geom_bond_site_symmetry_2
_ccdc_geom_bond_type
V1     V3    10.0   1_655     S
V1     V6    10.0   1_556     S
V1     Er19    10.0   .     S
V1     V4    10.0   1_645     S
V1     V7    10.0   1_546     S
V1     Er20    10.0   1_545     S
V2     V16    10.0   1_556     S
V2     Er18    10.0   .     S
V2     V3    10.0   .     S
V2     V9    10.0   1_546     S
V2     Er17    10.0   1_545     S
V2     V4    10.0   1_545     S
V3     V6    10.0   1_456     S
V3     Er19    10.0   1_455     S
V3     V1    10.0   1_455     S
V3     V16    10.0   1_556     S
V3     Er18    10.0   .     S
V4     V1    10.0   1_465     S
V4     V7    10.0   1_456     S
V4     Er20    10.0   1_455     S
V4     V2    10.0   1_565     S
V4     V9    10.0   1_556     S
V4     Er17    10.0   .     S
V5     V10    10.0   1_655     S
V5     Er14    10.0   .     S
V5     V6    10.0   .     S
V5     V8    10.0   1_645     S
V5     Er15    10.0   1_545     S
V5     V7    10.0   1_545     S
V6     V3    10.0   1_654     S
V6     Er19    10.0   1_554     S
V6     V1    10.0   1_554     S
V6     V10    10.0   1_655     S
V6     Er14    10.0   .     S
V7     V4    10.0   1_654     S
V7     V1    10.0   1_564     S
V7     Er20    10.0   1_554     S
V7     V5    10.0   1_565     S
V7     V8    10.0   1_655     S
V7     Er15    10.0   .     S
V8     V5    10.0   1_465     S
V8     Er15    10.0   1_455     S
V8     V7    10.0   1_455     S
V8     V12    10.0   1_565     S
V8     Er13    10.0   .     S
V8     V9    10.0   .     S
V9     V2    10.0   1_564     S
V9     Er17    10.0   1_554     S
V9     V4    10.0   1_554     S
V9     V12    10.0   1_565     S
V9     Er13    10.0   .     S
V10     V6    10.0   1_455     S
V10     V5    10.0   1_455     S
V10     Er14    10.0   1_455     S
V10     Er11    10.0   .     S
V10     V12    10.0   .     S
V10     V16    10.0   .     S
Er11     V12    10.0   .     S
Er11     V16    10.0   .     S
Er11     V28    10.0   .     S
Er11     V25    10.0   .     S
Er11     V32    10.0   .     S
V12     V9    10.0   1_545     S
V12     V8    10.0   1_545     S
V12     Er13    10.0   1_545     S
V12     V16    10.0   .     S
Er13     V12    10.0   1_565     S
Er13     V27    10.0   .     S
Er13     V28    10.0   .     S
Er13     V31    10.0   .     S
Er14     V10    10.0   1_655     S
Er14     V25    10.0   .     S
Er14     V26    10.0   .     S
Er14     V30    10.0   .     S
Er15     V8    10.0   1_655     S
Er15     V5    10.0   1_565     S
Er15     V26    10.0   .     S
Er15     V27    10.0   .     S
Er15     V29    10.0   .     S
V16     V3    10.0   1_554     S
V16     V2    10.0   1_554     S
V16     Er18    10.0   1_554     S
Er17     V2    10.0   1_565     S
Er17     V9    10.0   1_556     S
Er17     V22    10.0   .     S
Er17     V21    10.0   .     S
Er17     V31    10.0   .     S
Er18     V16    10.0   1_556     S
Er18     V23    10.0   .     S
Er18     V22    10.0   .     S
Er18     V32    10.0   .     S
Er19     V3    10.0   1_655     S
Er19     V6    10.0   1_556     S
Er19     V24    10.0   .     S
Er19     V23    10.0   .     S
Er19     V30    10.0   .     S
Er20     V1    10.0   1_565     S
Er20     V4    10.0   1_655     S
Er20     V7    10.0   1_556     S
Er20     V21    10.0   .     S
Er20     V24    10.0   .     S
Er20     V29    10.0   .     S
V21     V24    10.0   .     S
V21     V29    10.0   .     S
V21     V22    10.0   .     S
V21     V31    10.0   .     S
V22     V31    10.0   .     S
V22     V23    10.0   .     S
V22     V32    10.0   .     S
V23     V32    10.0   .     S
V23     V24    10.0   .     S
V23     V30    10.0   .     S
V24     V30    10.0   .     S
V24     V29    10.0   .     S
V25     V26    10.0   .     S
V25     V30    10.0   .     S
V25     V28    10.0   .     S
V25     V32    10.0   .     S
V26     V27    10.0   .     S
V26     V29    10.0   .     S
V26     V30    10.0   .     S
V27     V28    10.0   .     S
V27     V31    10.0   .     S
V27     V29    10.0   .     S
V28     V32    10.0   .     S
V28     V31    10.0   .     S
