data_pcuge
_audit_creation_date              2020-02-02
_audit_creation_method            'Pymatgen'
_symmetry_space_group_name_H-M    'P1'
_symmetry_Int_Tables_number       1
loop_
_symmetry_equiv_pos_as_xyz
  x,y,z
_cell_length_a                    61.1996
_cell_length_b                    61.1996
_cell_length_c                    61.1996
_cell_angle_alpha                 90.0
_cell_angle_beta                 90.0
_cell_angle_gamma                 90.0
loop_
_atom_site_label
_atom_site_type_symbol
_atom_site_fract_x
_atom_site_fract_y
_atom_site_fract_z
Er1     Er     0.3778   0.653   0.781
Er2     Er     0.6222   0.847   0.781
V3     V     0.5   0.75   0.8294
Er4     Er     0.153   0.781   0.1222
Er5     Er     0.347   0.781   0.8778
V6     V     0.25   0.8294   0.0
Er7     Er     0.8778   0.847   0.219
V8     V     0.0   0.75   0.1706
Er9     Er     0.1222   0.653   0.219
Er10     Er     0.847   0.781   0.6222
V11     V     0.75   0.8294   0.5
Er12     Er     0.653   0.781   0.3778
Er13     Er     0.781   0.1222   0.153
Er14     Er     0.781   0.8778   0.347
V15     V     0.8294   0.0   0.25
Er16     Er     0.653   0.219   0.1222
V17     V     0.75   0.1706   0.0
Er18     Er     0.847   0.219   0.8778
Er19     Er     0.781   0.3778   0.653
Er20     Er     0.781   0.6222   0.847
V21     V     0.8294   0.5   0.75
Er22     Er     0.847   0.281   0.3778
V23     V     0.75   0.3294   0.5
Er24     Er     0.653   0.281   0.6222
Er25     Er     0.281   0.3778   0.847
V26     V     0.3294   0.5   0.75
Er27     Er     0.281   0.6222   0.653
Er28     Er     0.1222   0.153   0.781
Er29     Er     0.8778   0.347   0.781
V30     V     0.0   0.25   0.8294
Er31     Er     0.219   0.1222   0.653
V32     V     0.1706   0.0   0.75
Er33     Er     0.219   0.8778   0.847
Er34     Er     0.3778   0.847   0.281
Er35     Er     0.6222   0.653   0.281
V36     V     0.5   0.75   0.3294
Er37     Er     0.3778   0.347   0.719
Er38     Er     0.6222   0.153   0.719
V39     V     0.5   0.25   0.6706
Er40     Er     0.719   0.1222   0.847
Er41     Er     0.719   0.8778   0.653
V42     V     0.6706   0.0   0.75
Er43     Er     0.153   0.719   0.6222
Er44     Er     0.347   0.719   0.3778
V45     V     0.25   0.6706   0.5
Er46     Er     0.1222   0.847   0.719
Er47     Er     0.8778   0.653   0.719
V48     V     0.0   0.75   0.6706
Er49     Er     0.719   0.3778   0.347
Er50     Er     0.719   0.6222   0.153
V51     V     0.6706   0.5   0.25
Er52     Er     0.847   0.719   0.1222
Er53     Er     0.653   0.719   0.8778
V54     V     0.75   0.6706   0.0
Er55     Er     0.219   0.3778   0.153
Er56     Er     0.219   0.6222   0.347
V57     V     0.1706   0.5   0.25
Er58     Er     0.153   0.281   0.8778
Er59     Er     0.347   0.281   0.1222
V60     V     0.25   0.3294   0.0
Er61     Er     0.8778   0.153   0.281
Er62     Er     0.1222   0.347   0.281
V63     V     0.0   0.25   0.3294
Er64     Er     0.153   0.219   0.3778
Er65     Er     0.347   0.219   0.6222
V66     V     0.25   0.1706   0.5
Er67     Er     0.281   0.8778   0.153
Er68     Er     0.281   0.1222   0.347
V69     V     0.3294   0.0   0.25
Er70     Er     0.3778   0.153   0.219
Er71     Er     0.6222   0.347   0.219
V72     V     0.5   0.25   0.1706
loop_
_geom_bond_atom_site_label_1
_geom_bond_atom_site_label_2
_geom_bond_distance
_geom_bond_site_symmetry_2
_ccdc_geom_bond_type
Er1     Er5    10.0   .     S
Er1     V3    10.0   .     S
Er1     V26    10.0   .     S
Er1     Er27    10.0   .     S
Er2     Er53    10.0   .     S
Er2     V3    10.0   .     S
Er2     Er41    10.0   .     S
Er2     V42    10.0   1_565     S
V3     Er53    10.0   .     S
V3     Er5    10.0   .     S
Er4     Er67    10.0   .     S
Er4     V6    10.0   .     S
Er4     V8    10.0   .     S
Er4     Er9    10.0   .     S
Er5     Er33    10.0   .     S
Er5     V6    10.0   1_556     S
V6     Er5    10.0   1_554     S
V6     Er33    10.0   1_554     S
V6     Er67    10.0   .     S
Er7     Er52    10.0   .     S
Er7     V8    10.0   1_655     S
Er7     Er14    10.0   .     S
Er7     V15    10.0   1_565     S
V8     Er7    10.0   1_455     S
V8     Er52    10.0   1_455     S
V8     Er9    10.0   .     S
Er9     Er56    10.0   .     S
Er9     V57    10.0   .     S
Er10     Er41    10.0   .     S
Er10     V11    10.0   .     S
Er10     Er47    10.0   .     S
Er10     V48    10.0   1_655     S
V11     Er41    10.0   .     S
V11     Er14    10.0   .     S
V11     Er12    10.0   .     S
Er12     Er14    10.0   .     S
Er12     Er35    10.0   .     S
Er12     V36    10.0   .     S
Er13     Er61    10.0   .     S
Er13     V15    10.0   .     S
Er13     Er16    10.0   .     S
Er13     V17    10.0   .     S
Er14     V15    10.0   1_565     S
V15     Er14    10.0   1_545     S
V15     Er7    10.0   1_545     S
V15     Er61    10.0   .     S
Er16     V17    10.0   .     S
Er16     Er71    10.0   .     S
Er16     V72    10.0   .     S
V17     Er40    10.0   1_554     S
V17     Er18    10.0   1_554     S
Er18     Er40    10.0   .     S
Er18     V17    10.0   1_556     S
Er18     Er29    10.0   .     S
Er18     V30    10.0   1_655     S
Er19     Er29    10.0   .     S
Er19     V21    10.0   .     S
Er19     V23    10.0   .     S
Er19     Er24    10.0   .     S
Er20     Er47    10.0   .     S
Er20     V21    10.0   .     S
Er20     Er53    10.0   .     S
Er20     V54    10.0   1_556     S
V21     Er47    10.0   .     S
V21     Er29    10.0   .     S
Er22     Er49    10.0   .     S
Er22     V23    10.0   .     S
Er22     Er61    10.0   .     S
Er22     V63    10.0   1_655     S
V23     Er49    10.0   .     S
V23     Er24    10.0   .     S
Er24     Er38    10.0   .     S
Er24     V39    10.0   .     S
Er25     Er37    10.0   .     S
Er25     V26    10.0   .     S
Er25     Er58    10.0   .     S
Er25     V60    10.0   1_556     S
V26     Er37    10.0   .     S
V26     Er27    10.0   .     S
Er27     Er43    10.0   .     S
Er27     V45    10.0   .     S
Er28     Er58    10.0   .     S
Er28     V30    10.0   .     S
Er28     Er31    10.0   .     S
Er28     V32    10.0   .     S
Er29     V30    10.0   1_655     S
V30     Er29    10.0   1_455     S
V30     Er18    10.0   1_455     S
V30     Er58    10.0   .     S
Er31     V32    10.0   .     S
Er31     Er65    10.0   .     S
Er31     V66    10.0   .     S
V32     Er46    10.0   1_545     S
V32     Er33    10.0   1_545     S
Er33     V6    10.0   1_556     S
Er33     Er46    10.0   .     S
Er33     V32    10.0   1_565     S
Er34     Er44    10.0   .     S
Er34     V36    10.0   .     S
Er34     Er67    10.0   .     S
Er34     V69    10.0   1_565     S
Er35     V36    10.0   .     S
Er35     Er50    10.0   .     S
Er35     V51    10.0   .     S
V36     Er44    10.0   .     S
Er37     Er65    10.0   .     S
Er37     V39    10.0   .     S
Er38     V39    10.0   .     S
Er38     Er40    10.0   .     S
Er38     V42    10.0   .     S
V39     Er65    10.0   .     S
Er40     V17    10.0   1_556     S
Er40     V42    10.0   .     S
Er41     V42    10.0   1_565     S
V42     Er41    10.0   1_545     S
V42     Er2    10.0   1_545     S
Er43     V45    10.0   .     S
Er43     Er46    10.0   .     S
Er43     V48    10.0   .     S
Er44     Er56    10.0   .     S
Er44     V45    10.0   .     S
V45     Er56    10.0   .     S
Er46     V32    10.0   1_565     S
Er46     V48    10.0   .     S
Er47     V48    10.0   1_655     S
V48     Er47    10.0   1_455     S
V48     Er10    10.0   1_455     S
Er49     Er71    10.0   .     S
Er49     V51    10.0   .     S
Er50     V51    10.0   .     S
Er50     Er52    10.0   .     S
Er50     V54    10.0   .     S
V51     Er71    10.0   .     S
Er52     V8    10.0   1_655     S
Er52     V54    10.0   .     S
Er53     V54    10.0   1_556     S
V54     Er53    10.0   1_554     S
V54     Er20    10.0   1_554     S
Er55     Er62    10.0   .     S
Er55     V57    10.0   .     S
Er55     Er59    10.0   .     S
Er55     V60    10.0   .     S
Er56     V57    10.0   .     S
V57     Er62    10.0   .     S
Er58     V60    10.0   1_556     S
Er59     V60    10.0   .     S
Er59     Er70    10.0   .     S
Er59     V72    10.0   .     S
V60     Er58    10.0   1_554     S
V60     Er25    10.0   1_554     S
Er61     V63    10.0   1_655     S
Er62     Er64    10.0   .     S
Er62     V63    10.0   .     S
V63     Er61    10.0   1_455     S
V63     Er22    10.0   1_455     S
V63     Er64    10.0   .     S
Er64     Er68    10.0   .     S
Er64     V66    10.0   .     S
Er65     V66    10.0   .     S
V66     Er68    10.0   .     S
Er67     V69    10.0   1_565     S
Er68     Er70    10.0   .     S
Er68     V69    10.0   .     S
V69     Er67    10.0   1_545     S
V69     Er34    10.0   1_545     S
V69     Er70    10.0   .     S
Er70     V72    10.0   .     S
Er71     V72    10.0   .     S
