data_pcuh
_audit_creation_date              2020-02-02
_audit_creation_method            'Pymatgen'
_symmetry_space_group_name_H-M    'P1'
_symmetry_Int_Tables_number       1
loop_
_symmetry_equiv_pos_as_xyz
  x,y,z
_cell_length_a                    42.7468
_cell_length_b                    42.7468
_cell_length_c                    35.4527
_cell_angle_alpha                 90.0
_cell_angle_beta                 90.0
_cell_angle_gamma                 120.0
loop_
_atom_site_label
_atom_site_type_symbol
_atom_site_fract_x
_atom_site_fract_y
_atom_site_fract_z
V1     V     0.4532   0.5468   0.6017
V2     V     0.0936   0.5468   0.6017
V3     V     0.2135   0.4269   0.7317
V4     V     0.2135   0.7865   0.7317
V5     V     0.5731   0.7865   0.7317
V6     V     0.4532   0.9064   0.6017
V7     V     0.8801   0.7603   0.065
V8     V     0.7603   0.8801   0.935
V9     V     0.2397   0.1199   0.065
V10     V     0.1199   0.2397   0.935
V11     V     0.8801   0.1199   0.065
V12     V     0.1199   0.8801   0.935
V13     V     0.5468   0.0936   0.3983
V14     V     0.5468   0.4532   0.3983
V15     V     0.4269   0.2135   0.2683
V16     V     0.7865   0.5731   0.2683
V17     V     0.7865   0.2135   0.2683
V18     V     0.9064   0.4532   0.3983
loop_
_geom_bond_atom_site_label_1
_geom_bond_atom_site_label_2
_geom_bond_distance
_geom_bond_site_symmetry_2
_ccdc_geom_bond_type
V1     V14    10.0   .     S
V1     V5    10.0   .     S
V1     V3    10.0   .     S
V2     V18    10.0   1_455     S
V2     V4    10.0   .     S
V2     V3    10.0   .     S
V3     V10    10.0   .     S
V4     V12    10.0   .     S
V4     V6    10.0   .     S
V5     V8    10.0   .     S
V5     V6    10.0   .     S
V6     V13    10.0   1_565     S
V7     V16    10.0   .     S
V7     V12    10.0   1_654     S
V7     V8    10.0   1_554     S
V8     V7    10.0   1_556     S
V8     V11    10.0   1_566     S
V9     V10    10.0   1_554     S
V9     V12    10.0   1_544     S
V9     V15    10.0   .     S
V10     V9    10.0   1_556     S
V10     V11    10.0   1_456     S
V11     V8    10.0   1_544     S
V11     V10    10.0   1_654     S
V11     V17    10.0   .     S
V12     V7    10.0   1_456     S
V12     V9    10.0   1_566     S
V13     V6    10.0   1_545     S
V13     V17    10.0   .     S
V13     V15    10.0   .     S
V14     V16    10.0   .     S
V14     V15    10.0   .     S
V16     V18    10.0   .     S
V17     V18    10.0   .     S
V18     V2    10.0   1_655     S
