data_pdm
_audit_creation_date              2020-02-02
_audit_creation_method            'Pymatgen'
_symmetry_space_group_name_H-M    'P1'
_symmetry_Int_Tables_number       1
loop_
_symmetry_equiv_pos_as_xyz
  x,y,z
_cell_length_a                    79.4944
_cell_length_b                    79.4944
_cell_length_c                    79.4944
_cell_angle_alpha                 90.0
_cell_angle_beta                 90.0
_cell_angle_gamma                 90.0
loop_
_atom_site_label
_atom_site_type_symbol
_atom_site_fract_x
_atom_site_fract_y
_atom_site_fract_z
V1     V     0.275   0.3348   0.5
V2     V     0.3348   0.225   0.5
V3     V     0.225   0.1652   0.5
V4     V     0.1652   0.275   0.5
V5     V     0.3348   0.5   0.275
V6     V     0.225   0.5   0.3348
V7     V     0.1652   0.5   0.225
V8     V     0.275   0.5   0.1652
Er9     Er     0.328   0.2924   0.3938
Er10     Er     0.2924   0.172   0.3938
Er11     Er     0.2076   0.328   0.3938
Er12     Er     0.172   0.2076   0.3938
Er13     Er     0.2924   0.3938   0.328
Er14     Er     0.172   0.3938   0.2924
Er15     Er     0.328   0.3938   0.2076
Er16     Er     0.2076   0.3938   0.172
Er17     Er     0.1062   0.2924   0.328
Er18     Er     0.1062   0.172   0.2924
Er19     Er     0.1062   0.328   0.2076
Er20     Er     0.1062   0.2076   0.172
Er21     Er     0.3938   0.2924   0.172
Er22     Er     0.3938   0.328   0.2924
Er23     Er     0.3938   0.2076   0.328
Er24     Er     0.3938   0.172   0.2076
Er25     Er     0.2924   0.1062   0.172
Er26     Er     0.328   0.1062   0.2924
Er27     Er     0.2076   0.1062   0.328
Er28     Er     0.172   0.1062   0.2076
Er29     Er     0.172   0.2924   0.1062
Er30     Er     0.2924   0.328   0.1062
Er31     Er     0.328   0.2076   0.1062
Er32     Er     0.2076   0.172   0.1062
V33     V     0.5   0.275   0.3348
V34     V     0.5   0.3348   0.225
V35     V     0.5   0.1652   0.275
V36     V     0.5   0.225   0.1652
V37     V     0.5   0.275   0.6652
V38     V     0.5   0.1652   0.725
V39     V     0.5   0.225   0.8348
V40     V     0.5   0.3348   0.775
V41     V     0.225   0.8348   0.5
V42     V     0.3348   0.775   0.5
V43     V     0.275   0.6652   0.5
V44     V     0.1652   0.725   0.5
Er45     Er     0.2924   0.6062   0.328
Er46     Er     0.172   0.6062   0.2924
Er47     Er     0.328   0.6062   0.2076
Er48     Er     0.2076   0.6062   0.172
Er49     Er     0.172   0.7924   0.3938
Er50     Er     0.2076   0.672   0.3938
Er51     Er     0.328   0.7076   0.3938
Er52     Er     0.2924   0.828   0.3938
Er53     Er     0.1062   0.672   0.2076
Er54     Er     0.1062   0.7076   0.328
Er55     Er     0.1062   0.828   0.2924
Er56     Er     0.1062   0.7924   0.172
Er57     Er     0.2924   0.8938   0.172
Er58     Er     0.2076   0.8938   0.328
Er59     Er     0.328   0.8938   0.2924
Er60     Er     0.172   0.8938   0.2076
Er61     Er     0.3938   0.672   0.2924
Er62     Er     0.3938   0.7924   0.328
Er63     Er     0.3938   0.828   0.2076
Er64     Er     0.3938   0.7076   0.172
Er65     Er     0.2924   0.672   0.1062
Er66     Er     0.328   0.7924   0.1062
Er67     Er     0.2076   0.828   0.1062
Er68     Er     0.172   0.7076   0.1062
V69     V     0.275   0.0   0.3348
V70     V     0.3348   0.0   0.225
V71     V     0.1652   0.0   0.275
V72     V     0.225   0.0   0.1652
V73     V     0.5   0.8348   0.275
V74     V     0.5   0.775   0.1652
V75     V     0.5   0.6652   0.225
V76     V     0.5   0.725   0.3348
Er77     Er     0.328   0.2924   0.6062
Er78     Er     0.2924   0.172   0.6062
Er79     Er     0.2076   0.328   0.6062
Er80     Er     0.172   0.2076   0.6062
Er81     Er     0.3938   0.172   0.7924
Er82     Er     0.3938   0.2076   0.672
Er83     Er     0.3938   0.328   0.7076
Er84     Er     0.3938   0.2924   0.828
Er85     Er     0.172   0.1062   0.7924
Er86     Er     0.2076   0.1062   0.672
Er87     Er     0.328   0.1062   0.7076
Er88     Er     0.2924   0.1062   0.828
Er89     Er     0.2924   0.328   0.8938
Er90     Er     0.172   0.2924   0.8938
Er91     Er     0.328   0.2076   0.8938
Er92     Er     0.2076   0.172   0.8938
Er93     Er     0.2924   0.3938   0.672
Er94     Er     0.328   0.3938   0.7924
Er95     Er     0.172   0.3938   0.7076
Er96     Er     0.2076   0.3938   0.828
Er97     Er     0.1062   0.2924   0.672
Er98     Er     0.1062   0.328   0.7924
Er99     Er     0.1062   0.2076   0.828
Er100     Er     0.1062   0.172   0.7076
V101     V     0.3348   0.275   0.0
V102     V     0.225   0.3348   0.0
V103     V     0.275   0.1652   0.0
V104     V     0.1652   0.225   0.0
V105     V     0.275   0.5   0.8348
V106     V     0.1652   0.5   0.775
V107     V     0.225   0.5   0.6652
V108     V     0.3348   0.5   0.725
V109     V     0.8348   0.275   0.5
V110     V     0.6652   0.225   0.5
V111     V     0.725   0.3348   0.5
V112     V     0.775   0.1652   0.5
V113     V     0.275   0.8348   0.0
V114     V     0.1652   0.775   0.0
V115     V     0.225   0.6652   0.0
V116     V     0.3348   0.725   0.0
Er117     Er     0.3938   0.828   0.7924
Er118     Er     0.3938   0.7924   0.672
Er119     Er     0.3938   0.7076   0.828
Er120     Er     0.3938   0.672   0.7076
Er121     Er     0.172   0.7924   0.6062
Er122     Er     0.2076   0.672   0.6062
Er123     Er     0.328   0.7076   0.6062
Er124     Er     0.2924   0.828   0.6062
Er125     Er     0.1062   0.7076   0.672
Er126     Er     0.1062   0.672   0.7924
Er127     Er     0.1062   0.7924   0.828
Er128     Er     0.1062   0.828   0.7076
Er129     Er     0.2924   0.6062   0.672
Er130     Er     0.328   0.6062   0.7924
Er131     Er     0.2076   0.6062   0.828
Er132     Er     0.172   0.6062   0.7076
Er133     Er     0.172   0.8938   0.7924
Er134     Er     0.2076   0.8938   0.672
Er135     Er     0.328   0.8938   0.7076
Er136     Er     0.2924   0.8938   0.828
Er137     Er     0.172   0.7076   0.8938
Er138     Er     0.2924   0.672   0.8938
Er139     Er     0.328   0.7924   0.8938
Er140     Er     0.2076   0.828   0.8938
V141     V     0.275   0.0   0.6652
V142     V     0.1652   0.0   0.725
V143     V     0.225   0.0   0.8348
V144     V     0.3348   0.0   0.775
V145     V     0.5   0.775   0.8348
V146     V     0.5   0.6652   0.775
V147     V     0.5   0.725   0.6652
V148     V     0.5   0.8348   0.725
V149     V     0.6652   0.275   0.0
V150     V     0.725   0.1652   0.0
V151     V     0.8348   0.225   0.0
V152     V     0.775   0.3348   0.0
Er153     Er     0.828   0.1062   0.7924
Er154     Er     0.7076   0.1062   0.828
Er155     Er     0.7924   0.1062   0.672
Er156     Er     0.672   0.1062   0.7076
Er157     Er     0.6062   0.172   0.7924
Er158     Er     0.6062   0.2076   0.672
Er159     Er     0.6062   0.328   0.7076
Er160     Er     0.6062   0.2924   0.828
Er161     Er     0.828   0.3938   0.7076
Er162     Er     0.7076   0.3938   0.672
Er163     Er     0.672   0.3938   0.7924
Er164     Er     0.7924   0.3938   0.828
Er165     Er     0.7076   0.172   0.6062
Er166     Er     0.672   0.2924   0.6062
Er167     Er     0.7924   0.328   0.6062
Er168     Er     0.828   0.2076   0.6062
Er169     Er     0.828   0.2924   0.8938
Er170     Er     0.7924   0.172   0.8938
Er171     Er     0.7076   0.328   0.8938
Er172     Er     0.672   0.2076   0.8938
Er173     Er     0.8938   0.2924   0.672
Er174     Er     0.8938   0.328   0.7924
Er175     Er     0.8938   0.2076   0.828
Er176     Er     0.8938   0.172   0.7076
V177     V     0.0   0.275   0.8348
V178     V     0.0   0.1652   0.775
V179     V     0.0   0.225   0.6652
V180     V     0.0   0.3348   0.725
V181     V     0.725   0.5   0.8348
V182     V     0.8348   0.5   0.775
V183     V     0.775   0.5   0.6652
V184     V     0.6652   0.5   0.725
V185     V     0.725   0.8348   0.0
V186     V     0.8348   0.775   0.0
V187     V     0.775   0.6652   0.0
V188     V     0.6652   0.725   0.0
V189     V     0.775   0.0   0.8348
V190     V     0.6652   0.0   0.775
V191     V     0.725   0.0   0.6652
V192     V     0.8348   0.0   0.725
Er193     Er     0.6062   0.672   0.7076
Er194     Er     0.6062   0.7924   0.672
Er195     Er     0.6062   0.828   0.7924
Er196     Er     0.6062   0.7076   0.828
Er197     Er     0.7076   0.6062   0.672
Er198     Er     0.828   0.6062   0.7076
Er199     Er     0.672   0.6062   0.7924
Er200     Er     0.7924   0.6062   0.828
Er201     Er     0.7924   0.672   0.6062
Er202     Er     0.672   0.7076   0.6062
Er203     Er     0.828   0.7924   0.6062
Er204     Er     0.7076   0.828   0.6062
Er205     Er     0.7076   0.672   0.8938
Er206     Er     0.828   0.7076   0.8938
Er207     Er     0.672   0.7924   0.8938
Er208     Er     0.7924   0.828   0.8938
Er209     Er     0.672   0.8938   0.7076
Er210     Er     0.7924   0.8938   0.672
Er211     Er     0.828   0.8938   0.7924
Er212     Er     0.7076   0.8938   0.828
Er213     Er     0.8938   0.7076   0.672
Er214     Er     0.8938   0.828   0.7076
Er215     Er     0.8938   0.672   0.7924
Er216     Er     0.8938   0.7924   0.828
V217     V     0.0   0.725   0.8348
V218     V     0.0   0.8348   0.775
V219     V     0.0   0.775   0.6652
V220     V     0.0   0.6652   0.725
V221     V     0.775   0.8348   0.5
V222     V     0.8348   0.725   0.5
V223     V     0.6652   0.775   0.5
V224     V     0.725   0.6652   0.5
V225     V     0.8348   0.0   0.275
V226     V     0.775   0.0   0.1652
V227     V     0.6652   0.0   0.225
V228     V     0.725   0.0   0.3348
Er229     Er     0.7076   0.828   0.3938
Er230     Er     0.672   0.7076   0.3938
Er231     Er     0.7924   0.672   0.3938
Er232     Er     0.828   0.7924   0.3938
Er233     Er     0.7924   0.6062   0.172
Er234     Er     0.7076   0.6062   0.328
Er235     Er     0.672   0.6062   0.2076
Er236     Er     0.828   0.6062   0.2924
Er237     Er     0.7076   0.672   0.1062
Er238     Er     0.672   0.7924   0.1062
Er239     Er     0.7924   0.828   0.1062
Er240     Er     0.828   0.7076   0.1062
Er241     Er     0.6062   0.7076   0.172
Er242     Er     0.6062   0.672   0.2924
Er243     Er     0.6062   0.7924   0.328
Er244     Er     0.6062   0.828   0.2076
Er245     Er     0.8938   0.828   0.2924
Er246     Er     0.8938   0.7924   0.172
Er247     Er     0.8938   0.7076   0.328
Er248     Er     0.8938   0.672   0.2076
Er249     Er     0.7076   0.8938   0.172
Er250     Er     0.672   0.8938   0.2924
Er251     Er     0.7924   0.8938   0.328
Er252     Er     0.828   0.8938   0.2076
V253     V     0.0   0.775   0.3348
V254     V     0.0   0.6652   0.275
V255     V     0.0   0.725   0.1652
V256     V     0.0   0.8348   0.225
V257     V     0.775   0.5   0.3348
V258     V     0.6652   0.5   0.275
V259     V     0.725   0.5   0.1652
V260     V     0.8348   0.5   0.225
Er261     Er     0.6062   0.2924   0.172
Er262     Er     0.6062   0.2076   0.328
Er263     Er     0.6062   0.328   0.2924
Er264     Er     0.6062   0.172   0.2076
Er265     Er     0.672   0.3938   0.2076
Er266     Er     0.7076   0.3938   0.328
Er267     Er     0.828   0.3938   0.2924
Er268     Er     0.7924   0.3938   0.172
Er269     Er     0.672   0.2076   0.1062
Er270     Er     0.7076   0.328   0.1062
Er271     Er     0.828   0.2924   0.1062
Er272     Er     0.7924   0.172   0.1062
Er273     Er     0.672   0.2924   0.3938
Er274     Er     0.7924   0.328   0.3938
Er275     Er     0.828   0.2076   0.3938
Er276     Er     0.7076   0.172   0.3938
Er277     Er     0.8938   0.172   0.2924
Er278     Er     0.8938   0.2924   0.328
Er279     Er     0.8938   0.328   0.2076
Er280     Er     0.8938   0.2076   0.172
Er281     Er     0.672   0.1062   0.2924
Er282     Er     0.7924   0.1062   0.328
Er283     Er     0.828   0.1062   0.2076
Er284     Er     0.7076   0.1062   0.172
V285     V     0.0   0.3348   0.275
V286     V     0.0   0.225   0.3348
V287     V     0.0   0.1652   0.225
V288     V     0.0   0.275   0.1652
loop_
_geom_bond_atom_site_label_1
_geom_bond_atom_site_label_2
_geom_bond_distance
_geom_bond_site_symmetry_2
_ccdc_geom_bond_type
V1     V2    9.935   .     S
V1     V4    9.935   .     S
V1     Er77    10.017   .     S
V1     Er79    10.017   .     S
V1     Er9    10.017   .     S
V1     Er11    10.017   .     S
V2     V3    9.935   .     S
V2     Er78    10.017   .     S
V2     Er77    10.017   .     S
V2     Er10    10.017   .     S
V2     Er9    10.017   .     S
V3     V4    9.935   .     S
V3     Er78    10.017   .     S
V3     Er80    10.017   .     S
V3     Er10    10.017   .     S
V3     Er12    10.017   .     S
V4     Er80    10.017   .     S
V4     Er79    10.017   .     S
V4     Er12    10.017   .     S
V4     Er11    10.017   .     S
V5     V6    9.935   .     S
V5     V8    9.935   .     S
V5     Er45    10.017   .     S
V5     Er47    10.017   .     S
V5     Er13    10.017   .     S
V5     Er15    10.017   .     S
V6     V7    9.935   .     S
V6     Er46    10.017   .     S
V6     Er45    10.017   .     S
V6     Er14    10.017   .     S
V6     Er13    10.017   .     S
V7     V8    9.935   .     S
V7     Er46    10.017   .     S
V7     Er48    10.017   .     S
V7     Er14    10.017   .     S
V7     Er16    10.017   .     S
V8     Er48    10.017   .     S
V8     Er47    10.017   .     S
V8     Er16    10.017   .     S
V8     Er15    10.017   .     S
Er9     Er13    10.013   .     S
Er9     Er22    10.013   .     S
Er9     Er23    10.012   .     S
Er9     Er11    9.979   .     S
Er9     Er10    9.979   .     S
Er10     Er26    10.013   .     S
Er10     Er27    10.012   .     S
Er10     Er23    10.013   .     S
Er10     Er12    9.979   .     S
Er11     Er13    10.012   .     S
Er11     Er14    10.013   .     S
Er11     Er17    10.013   .     S
Er11     Er12    9.979   .     S
Er12     Er17    10.012   .     S
Er12     Er18    10.013   .     S
Er12     Er27    10.013   .     S
Er13     Er22    10.013   .     S
Er13     Er15    9.979   .     S
Er13     Er14    9.979   .     S
Er14     Er17    10.013   .     S
Er14     Er19    10.012   .     S
Er14     Er16    9.979   .     S
Er15     Er30    10.013   .     S
Er15     Er22    10.012   .     S
Er15     Er21    10.013   .     S
Er15     Er16    9.979   .     S
Er16     Er30    10.012   .     S
Er16     Er29    10.013   .     S
Er16     Er19    10.013   .     S
Er17     V285    10.017   .     S
Er17     V286    10.017   .     S
Er17     Er19    9.979   .     S
Er17     Er18    9.979   .     S
Er18     Er27    10.013   .     S
Er18     Er28    10.012   .     S
Er18     V286    10.017   .     S
Er18     V287    10.017   .     S
Er18     Er20    9.979   .     S
Er19     Er29    10.013   .     S
Er19     V288    10.017   .     S
Er19     V285    10.017   .     S
Er19     Er20    9.979   .     S
Er20     Er29    10.012   .     S
Er20     Er32    10.013   .     S
Er20     Er28    10.013   .     S
Er20     V287    10.017   .     S
Er20     V288    10.017   .     S
Er21     Er30    10.013   .     S
Er21     Er31    10.012   .     S
Er21     V34    10.017   .     S
Er21     V36    10.017   .     S
Er21     Er22    9.979   .     S
Er21     Er24    9.979   .     S
Er22     V33    10.017   .     S
Er22     V34    10.017   .     S
Er22     Er23    9.979   .     S
Er23     Er26    10.013   .     S
Er23     V35    10.017   .     S
Er23     V33    10.017   .     S
Er23     Er24    9.979   .     S
Er24     Er26    10.012   .     S
Er24     Er25    10.013   .     S
Er24     Er31    10.013   .     S
Er24     V36    10.017   .     S
Er24     V35    10.017   .     S
Er25     Er31    10.013   .     S
Er25     Er32    10.012   .     S
Er25     V70    10.017   .     S
Er25     V72    10.017   .     S
Er25     Er26    9.979   .     S
Er25     Er28    9.979   .     S
Er26     V69    10.017   .     S
Er26     V70    10.017   .     S
Er26     Er27    9.979   .     S
Er27     V71    10.017   .     S
Er27     V69    10.017   .     S
Er27     Er28    9.979   .     S
Er28     Er32    10.013   .     S
Er28     V72    10.017   .     S
Er28     V71    10.017   .     S
Er29     V102    10.017   .     S
Er29     V104    10.017   .     S
Er29     Er30    9.979   .     S
Er29     Er32    9.979   .     S
Er30     V101    10.017   .     S
Er30     V102    10.017   .     S
Er30     Er31    9.979   .     S
Er31     V103    10.017   .     S
Er31     V101    10.017   .     S
Er31     Er32    9.979   .     S
Er32     V104    10.017   .     S
Er32     V103    10.017   .     S
V33     V34    9.935   .     S
V33     V35    9.935   .     S
V33     Er263    10.017   .     S
V33     Er262    10.017   .     S
V34     V36    9.935   .     S
V34     Er261    10.017   .     S
V34     Er263    10.017   .     S
V35     V36    9.935   .     S
V35     Er264    10.017   .     S
V35     Er262    10.017   .     S
V36     Er261    10.017   .     S
V36     Er264    10.017   .     S
V37     V40    9.935   .     S
V37     V38    9.935   .     S
V37     Er82    10.017   .     S
V37     Er83    10.017   .     S
V37     Er158    10.017   .     S
V37     Er159    10.017   .     S
V38     V39    9.935   .     S
V38     Er82    10.017   .     S
V38     Er81    10.017   .     S
V38     Er158    10.017   .     S
V38     Er157    10.017   .     S
V39     V40    9.935   .     S
V39     Er84    10.017   .     S
V39     Er81    10.017   .     S
V39     Er160    10.017   .     S
V39     Er157    10.017   .     S
V40     Er83    10.017   .     S
V40     Er84    10.017   .     S
V40     Er159    10.017   .     S
V40     Er160    10.017   .     S
V41     V44    9.935   .     S
V41     V42    9.935   .     S
V41     Er52    10.017   .     S
V41     Er49    10.017   .     S
V41     Er124    10.017   .     S
V41     Er121    10.017   .     S
V42     V43    9.935   .     S
V42     Er51    10.017   .     S
V42     Er52    10.017   .     S
V42     Er123    10.017   .     S
V42     Er124    10.017   .     S
V43     V44    9.935   .     S
V43     Er50    10.017   .     S
V43     Er51    10.017   .     S
V43     Er122    10.017   .     S
V43     Er123    10.017   .     S
V44     Er50    10.017   .     S
V44     Er49    10.017   .     S
V44     Er122    10.017   .     S
V44     Er121    10.017   .     S
Er45     Er51    10.013   .     S
Er45     Er50    10.012   .     S
Er45     Er61    10.013   .     S
Er45     Er47    9.979   .     S
Er45     Er46    9.979   .     S
Er46     Er50    10.013   .     S
Er46     Er54    10.013   .     S
Er46     Er53    10.012   .     S
Er46     Er48    9.979   .     S
Er47     Er61    10.012   .     S
Er47     Er64    10.013   .     S
Er47     Er65    10.013   .     S
Er47     Er48    9.979   .     S
Er48     Er65    10.012   .     S
Er48     Er68    10.013   .     S
Er48     Er53    10.013   .     S
Er49     Er58    10.013   .     S
Er49     Er55    10.013   .     S
Er49     Er54    10.012   .     S
Er49     Er50    9.979   .     S
Er49     Er52    9.979   .     S
Er50     Er54    10.013   .     S
Er50     Er51    9.979   .     S
Er51     Er62    10.012   .     S
Er51     Er61    10.013   .     S
Er51     Er52    9.979   .     S
Er52     Er59    10.013   .     S
Er52     Er58    10.012   .     S
Er52     Er62    10.013   .     S
Er53     Er68    10.013   .     S
Er53     V255    10.017   .     S
Er53     V254    10.017   .     S
Er53     Er56    9.979   .     S
Er53     Er54    9.979   .     S
Er54     V254    10.017   .     S
Er54     V253    10.017   .     S
Er54     Er55    9.979   .     S
Er55     Er58    10.013   .     S
Er55     Er60    10.012   .     S
Er55     V253    10.017   .     S
Er55     V256    10.017   .     S
Er55     Er56    9.979   .     S
Er56     Er60    10.013   .     S
Er56     Er67    10.013   .     S
Er56     Er68    10.012   .     S
Er56     V256    10.017   .     S
Er56     V255    10.017   .     S
Er57     Er66    10.013   .     S
Er57     Er67    10.012   .     S
Er57     Er63    10.013   .     S
Er57     V70    10.017   1_565     S
Er57     V72    10.017   1_565     S
Er57     Er60    9.979   .     S
Er57     Er59    9.979   .     S
Er58     V71    10.017   1_565     S
Er58     V69    10.017   1_565     S
Er58     Er60    9.979   .     S
Er58     Er59    9.979   .     S
Er59     Er62    10.013   .     S
Er59     Er63    10.012   .     S
Er59     V69    10.017   1_565     S
Er59     V70    10.017   1_565     S
Er60     Er67    10.013   .     S
Er60     V72    10.017   1_565     S
Er60     V71    10.017   1_565     S
Er61     V76    10.017   .     S
Er61     V75    10.017   .     S
Er61     Er62    9.979   .     S
Er61     Er64    9.979   .     S
Er62     V73    10.017   .     S
Er62     V76    10.017   .     S
Er62     Er63    9.979   .     S
Er63     Er66    10.013   .     S
Er63     V74    10.017   .     S
Er63     V73    10.017   .     S
Er63     Er64    9.979   .     S
Er64     Er66    10.012   .     S
Er64     Er65    10.013   .     S
Er64     V75    10.017   .     S
Er64     V74    10.017   .     S
Er65     V116    10.017   .     S
Er65     V115    10.017   .     S
Er65     Er66    9.979   .     S
Er65     Er68    9.979   .     S
Er66     V113    10.017   .     S
Er66     V116    10.017   .     S
Er66     Er67    9.979   .     S
Er67     V114    10.017   .     S
Er67     V113    10.017   .     S
Er67     Er68    9.979   .     S
Er68     V115    10.017   .     S
Er68     V114    10.017   .     S
V69     V70    9.935   .     S
V69     V71    9.935   .     S
V69     Er59    10.017   1_545     S
V69     Er58    10.017   1_545     S
V70     V72    9.935   .     S
V70     Er57    10.017   1_545     S
V70     Er59    10.017   1_545     S
V71     V72    9.935   .     S
V71     Er60    10.017   1_545     S
V71     Er58    10.017   1_545     S
V72     Er57    10.017   1_545     S
V72     Er60    10.017   1_545     S
V73     V76    9.935   .     S
V73     V74    9.935   .     S
V73     Er244    10.017   .     S
V73     Er243    10.017   .     S
V74     V75    9.935   .     S
V74     Er244    10.017   .     S
V74     Er241    10.017   .     S
V75     V76    9.935   .     S
V75     Er242    10.017   .     S
V75     Er241    10.017   .     S
V76     Er243    10.017   .     S
V76     Er242    10.017   .     S
Er77     Er83    10.013   .     S
Er77     Er82    10.012   .     S
Er77     Er93    10.013   .     S
Er77     Er79    9.979   .     S
Er77     Er78    9.979   .     S
Er78     Er82    10.013   .     S
Er78     Er87    10.013   .     S
Er78     Er86    10.012   .     S
Er78     Er80    9.979   .     S
Er79     Er93    10.012   .     S
Er79     Er95    10.013   .     S
Er79     Er97    10.013   .     S
Er79     Er80    9.979   .     S
Er80     Er86    10.013   .     S
Er80     Er97    10.012   .     S
Er80     Er100    10.013   .     S
Er81     Er91    10.013   .     S
Er81     Er88    10.013   .     S
Er81     Er87    10.012   .     S
Er81     Er82    9.979   .     S
Er81     Er84    9.979   .     S
Er82     Er87    10.013   .     S
Er82     Er83    9.979   .     S
Er83     Er94    10.012   .     S
Er83     Er93    10.013   .     S
Er83     Er84    9.979   .     S
Er84     Er89    10.013   .     S
Er84     Er91    10.012   .     S
Er84     Er94    10.013   .     S
Er85     Er92    10.013   .     S
Er85     Er99    10.013   .     S
Er85     Er100    10.012   .     S
Er85     V143    10.017   .     S
Er85     V142    10.017   .     S
Er85     Er86    9.979   .     S
Er85     Er88    9.979   .     S
Er86     Er100    10.013   .     S
Er86     V142    10.017   .     S
Er86     V141    10.017   .     S
Er86     Er87    9.979   .     S
Er87     V141    10.017   .     S
Er87     V144    10.017   .     S
Er87     Er88    9.979   .     S
Er88     Er91    10.013   .     S
Er88     Er92    10.012   .     S
Er88     V144    10.017   .     S
Er88     V143    10.017   .     S
Er89     Er94    10.013   .     S
Er89     Er96    10.012   .     S
Er89     V101    10.017   1_556     S
Er89     V102    10.017   1_556     S
Er89     Er91    9.979   .     S
Er89     Er90    9.979   .     S
Er90     Er96    10.013   .     S
Er90     Er98    10.013   .     S
Er90     Er99    10.012   .     S
Er90     V102    10.017   1_556     S
Er90     V104    10.017   1_556     S
Er90     Er92    9.979   .     S
Er91     V103    10.017   1_556     S
Er91     V101    10.017   1_556     S
Er91     Er92    9.979   .     S
Er92     Er99    10.013   .     S
Er92     V104    10.017   1_556     S
Er92     V103    10.017   1_556     S
Er93     V108    10.017   .     S
Er93     V107    10.017   .     S
Er93     Er95    9.979   .     S
Er93     Er94    9.979   .     S
Er94     V105    10.017   .     S
Er94     V108    10.017   .     S
Er94     Er96    9.979   .     S
Er95     Er98    10.012   .     S
Er95     Er97    10.013   .     S
Er95     V107    10.017   .     S
Er95     V106    10.017   .     S
Er95     Er96    9.979   .     S
Er96     Er98    10.013   .     S
Er96     V106    10.017   .     S
Er96     V105    10.017   .     S
Er97     V180    10.017   .     S
Er97     V179    10.017   .     S
Er97     Er100    9.979   .     S
Er97     Er98    9.979   .     S
Er98     V177    10.017   .     S
Er98     V180    10.017   .     S
Er98     Er99    9.979   .     S
Er99     V178    10.017   .     S
Er99     V177    10.017   .     S
Er99     Er100    9.979   .     S
Er100     V179    10.017   .     S
Er100     V178    10.017   .     S
V101     V102    9.935   .     S
V101     V103    9.935   .     S
V101     Er89    10.017   1_554     S
V101     Er91    10.017   1_554     S
V102     V104    9.935   .     S
V102     Er90    10.017   1_554     S
V102     Er89    10.017   1_554     S
V103     V104    9.935   .     S
V103     Er92    10.017   1_554     S
V103     Er91    10.017   1_554     S
V104     Er90    10.017   1_554     S
V104     Er92    10.017   1_554     S
V105     V108    9.935   .     S
V105     V106    9.935   .     S
V105     Er131    10.017   .     S
V105     Er130    10.017   .     S
V106     V107    9.935   .     S
V106     Er131    10.017   .     S
V106     Er132    10.017   .     S
V107     V108    9.935   .     S
V107     Er129    10.017   .     S
V107     Er132    10.017   .     S
V108     Er130    10.017   .     S
V108     Er129    10.017   .     S
V109     V111    9.935   .     S
V109     V112    9.935   .     S
V109     Er168    10.017   .     S
V109     Er167    10.017   .     S
V109     Er275    10.017   .     S
V109     Er274    10.017   .     S
V110     V112    9.935   .     S
V110     V111    9.935   .     S
V110     Er166    10.017   .     S
V110     Er165    10.017   .     S
V110     Er273    10.017   .     S
V110     Er276    10.017   .     S
V111     Er167    10.017   .     S
V111     Er166    10.017   .     S
V111     Er274    10.017   .     S
V111     Er273    10.017   .     S
V112     Er168    10.017   .     S
V112     Er165    10.017   .     S
V112     Er275    10.017   .     S
V112     Er276    10.017   .     S
V113     V116    9.935   .     S
V113     V114    9.935   .     S
V113     Er140    10.017   1_554     S
V113     Er139    10.017   1_554     S
V114     V115    9.935   .     S
V114     Er140    10.017   1_554     S
V114     Er137    10.017   1_554     S
V115     V116    9.935   .     S
V115     Er138    10.017   1_554     S
V115     Er137    10.017   1_554     S
V116     Er139    10.017   1_554     S
V116     Er138    10.017   1_554     S
Er117     Er139    10.013   .     S
Er117     Er136    10.013   .     S
Er117     Er135    10.012   .     S
Er117     V145    10.017   .     S
Er117     V148    10.017   .     S
Er117     Er118    9.979   .     S
Er117     Er119    9.979   .     S
Er118     Er124    10.013   .     S
Er118     Er123    10.012   .     S
Er118     Er135    10.013   .     S
Er118     V148    10.017   .     S
Er118     V147    10.017   .     S
Er118     Er120    9.979   .     S
Er119     Er139    10.012   .     S
Er119     Er138    10.013   .     S
Er119     Er130    10.013   .     S
Er119     V146    10.017   .     S
Er119     V145    10.017   .     S
Er119     Er120    9.979   .     S
Er120     Er130    10.012   .     S
Er120     Er129    10.013   .     S
Er120     Er123    10.013   .     S
Er120     V147    10.017   .     S
Er120     V146    10.017   .     S
Er121     Er134    10.013   .     S
Er121     Er128    10.013   .     S
Er121     Er125    10.012   .     S
Er121     Er122    9.979   .     S
Er121     Er124    9.979   .     S
Er122     Er129    10.012   .     S
Er122     Er132    10.013   .     S
Er122     Er125    10.013   .     S
Er122     Er123    9.979   .     S
Er123     Er129    10.013   .     S
Er123     Er124    9.979   .     S
Er124     Er135    10.013   .     S
Er124     Er134    10.012   .     S
Er125     Er132    10.013   .     S
Er125     V220    10.017   .     S
Er125     V219    10.017   .     S
Er125     Er128    9.979   .     S
Er125     Er126    9.979   .     S
Er126     Er131    10.013   .     S
Er126     Er132    10.012   .     S
Er126     Er137    10.013   .     S
Er126     V217    10.017   .     S
Er126     V220    10.017   .     S
Er126     Er127    9.979   .     S
Er127     Er133    10.013   .     S
Er127     Er140    10.013   .     S
Er127     Er137    10.012   .     S
Er127     V218    10.017   .     S
Er127     V217    10.017   .     S
Er127     Er128    9.979   .     S
Er128     Er133    10.012   .     S
Er128     Er134    10.013   .     S
Er128     V219    10.017   .     S
Er128     V218    10.017   .     S
Er129     Er132    9.979   .     S
Er129     Er130    9.979   .     S
Er130     Er138    10.013   .     S
Er130     Er131    9.979   .     S
Er131     Er137    10.013   .     S
Er131     Er138    10.012   .     S
Er131     Er132    9.979   .     S
Er133     Er140    10.013   .     S
Er133     V143    10.017   1_565     S
Er133     V142    10.017   1_565     S
Er133     Er134    9.979   .     S
Er133     Er136    9.979   .     S
Er134     V142    10.017   1_565     S
Er134     V141    10.017   1_565     S
Er134     Er135    9.979   .     S
Er135     V141    10.017   1_565     S
Er135     V144    10.017   1_565     S
Er135     Er136    9.979   .     S
Er136     Er139    10.013   .     S
Er136     Er140    10.012   .     S
Er136     V144    10.017   1_565     S
Er136     V143    10.017   1_565     S
Er137     V115    10.017   1_556     S
Er137     V114    10.017   1_556     S
Er137     Er140    9.979   .     S
Er137     Er138    9.979   .     S
Er138     V116    10.017   1_556     S
Er138     V115    10.017   1_556     S
Er138     Er139    9.979   .     S
Er139     V113    10.017   1_556     S
Er139     V116    10.017   1_556     S
Er139     Er140    9.979   .     S
Er140     V114    10.017   1_556     S
Er140     V113    10.017   1_556     S
V141     V144    9.935   .     S
V141     V142    9.935   .     S
V141     Er134    10.017   1_545     S
V141     Er135    10.017   1_545     S
V142     V143    9.935   .     S
V142     Er134    10.017   1_545     S
V142     Er133    10.017   1_545     S
V143     V144    9.935   .     S
V143     Er136    10.017   1_545     S
V143     Er133    10.017   1_545     S
V144     Er135    10.017   1_545     S
V144     Er136    10.017   1_545     S
V145     V148    9.935   .     S
V145     V146    9.935   .     S
V145     Er196    10.017   .     S
V145     Er195    10.017   .     S
V146     V147    9.935   .     S
V146     Er193    10.017   .     S
V146     Er196    10.017   .     S
V147     V148    9.935   .     S
V147     Er193    10.017   .     S
V147     Er194    10.017   .     S
V148     Er194    10.017   .     S
V148     Er195    10.017   .     S
V149     V152    9.935   .     S
V149     V150    9.935   .     S
V149     Er172    10.017   1_554     S
V149     Er171    10.017   1_554     S
V149     Er269    10.017   .     S
V149     Er270    10.017   .     S
V150     V151    9.935   .     S
V150     Er172    10.017   1_554     S
V150     Er170    10.017   1_554     S
V150     Er269    10.017   .     S
V150     Er272    10.017   .     S
V151     V152    9.935   .     S
V151     Er169    10.017   1_554     S
V151     Er170    10.017   1_554     S
V151     Er271    10.017   .     S
V151     Er272    10.017   .     S
V152     Er171    10.017   1_554     S
V152     Er169    10.017   1_554     S
V152     Er270    10.017   .     S
V152     Er271    10.017   .     S
Er153     Er170    10.013   .     S
Er153     Er175    10.013   .     S
Er153     Er176    10.012   .     S
Er153     V189    10.017   .     S
Er153     V192    10.017   .     S
Er153     Er155    9.979   .     S
Er153     Er154    9.979   .     S
Er154     Er170    10.012   .     S
Er154     Er172    10.013   .     S
Er154     Er157    10.013   .     S
Er154     V190    10.017   .     S
Er154     V189    10.017   .     S
Er154     Er156    9.979   .     S
Er155     Er168    10.013   .     S
Er155     Er165    10.012   .     S
Er155     Er176    10.013   .     S
Er155     V192    10.017   .     S
Er155     V191    10.017   .     S
Er155     Er156    9.979   .     S
Er156     Er165    10.013   .     S
Er156     Er157    10.012   .     S
Er156     Er158    10.013   .     S
Er156     V191    10.017   .     S
Er156     V190    10.017   .     S
Er157     Er172    10.013   .     S
Er157     Er158    9.979   .     S
Er157     Er160    9.979   .     S
Er158     Er166    10.012   .     S
Er158     Er165    10.013   .     S
Er158     Er159    9.979   .     S
Er159     Er166    10.013   .     S
Er159     Er163    10.012   .     S
Er159     Er162    10.013   .     S
Er159     Er160    9.979   .     S
Er160     Er171    10.013   .     S
Er160     Er172    10.012   .     S
Er160     Er163    10.013   .     S
Er161     Er174    10.012   .     S
Er161     Er173    10.013   .     S
Er161     Er167    10.013   .     S
Er161     V183    10.017   .     S
Er161     V182    10.017   .     S
Er161     Er164    9.979   .     S
Er161     Er162    9.979   .     S
Er162     Er167    10.012   .     S
Er162     Er166    10.013   .     S
Er162     V184    10.017   .     S
Er162     V183    10.017   .     S
Er162     Er163    9.979   .     S
Er163     Er171    10.013   .     S
Er163     V181    10.017   .     S
Er163     V184    10.017   .     S
Er163     Er164    9.979   .     S
Er164     Er174    10.013   .     S
Er164     Er169    10.013   .     S
Er164     Er171    10.012   .     S
Er164     V182    10.017   .     S
Er164     V181    10.017   .     S
Er165     Er168    9.979   .     S
Er165     Er166    9.979   .     S
Er166     Er167    9.979   .     S
Er167     Er173    10.013   .     S
Er167     Er168    9.979   .     S
Er168     Er176    10.013   .     S
Er168     Er173    10.012   .     S
Er169     V152    10.017   1_556     S
Er169     V151    10.017   1_556     S
Er169     Er174    10.013   .     S
Er169     Er175    10.012   .     S
Er169     Er170    9.979   .     S
Er169     Er171    9.979   .     S
Er170     V151    10.017   1_556     S
Er170     V150    10.017   1_556     S
Er170     Er175    10.013   .     S
Er170     Er172    9.979   .     S
Er171     V149    10.017   1_556     S
Er171     V152    10.017   1_556     S
Er171     Er172    9.979   .     S
Er172     V150    10.017   1_556     S
Er172     V149    10.017   1_556     S
Er173     V180    10.017   1_655     S
Er173     V179    10.017   1_655     S
Er173     Er176    9.979   .     S
Er173     Er174    9.979   .     S
Er174     V177    10.017   1_655     S
Er174     V180    10.017   1_655     S
Er174     Er175    9.979   .     S
Er175     V178    10.017   1_655     S
Er175     V177    10.017   1_655     S
Er175     Er176    9.979   .     S
Er176     V179    10.017   1_655     S
Er176     V178    10.017   1_655     S
V177     V180    9.935   .     S
V177     V178    9.935   .     S
V177     Er175    10.017   1_455     S
V177     Er174    10.017   1_455     S
V178     V179    9.935   .     S
V178     Er175    10.017   1_455     S
V178     Er176    10.017   1_455     S
V179     V180    9.935   .     S
V179     Er173    10.017   1_455     S
V179     Er176    10.017   1_455     S
V180     Er174    10.017   1_455     S
V180     Er173    10.017   1_455     S
V181     V184    9.935   .     S
V181     V182    9.935   .     S
V181     Er199    10.017   .     S
V181     Er200    10.017   .     S
V182     V183    9.935   .     S
V182     Er198    10.017   .     S
V182     Er200    10.017   .     S
V183     V184    9.935   .     S
V183     Er197    10.017   .     S
V183     Er198    10.017   .     S
V184     Er197    10.017   .     S
V184     Er199    10.017   .     S
V185     V188    9.935   .     S
V185     V186    9.935   .     S
V185     Er207    10.017   1_554     S
V185     Er208    10.017   1_554     S
V185     Er238    10.017   .     S
V185     Er239    10.017   .     S
V186     V187    9.935   .     S
V186     Er206    10.017   1_554     S
V186     Er208    10.017   1_554     S
V186     Er240    10.017   .     S
V186     Er239    10.017   .     S
V187     V188    9.935   .     S
V187     Er205    10.017   1_554     S
V187     Er206    10.017   1_554     S
V187     Er237    10.017   .     S
V187     Er240    10.017   .     S
V188     Er205    10.017   1_554     S
V188     Er207    10.017   1_554     S
V188     Er237    10.017   .     S
V188     Er238    10.017   .     S
V189     V192    9.935   .     S
V189     V190    9.935   .     S
V189     Er212    10.017   1_545     S
V189     Er211    10.017   1_545     S
V190     V191    9.935   .     S
V190     Er209    10.017   1_545     S
V190     Er212    10.017   1_545     S
V191     V192    9.935   .     S
V191     Er209    10.017   1_545     S
V191     Er210    10.017   1_545     S
V192     Er210    10.017   1_545     S
V192     Er211    10.017   1_545     S
Er193     Er202    10.013   .     S
Er193     Er199    10.012   .     S
Er193     Er197    10.013   .     S
Er193     Er194    9.979   .     S
Er193     Er196    9.979   .     S
Er194     Er204    10.013   .     S
Er194     Er202    10.012   .     S
Er194     Er209    10.013   .     S
Er194     Er195    9.979   .     S
Er195     Er207    10.013   .     S
Er195     Er212    10.013   .     S
Er195     Er209    10.012   .     S
Er195     Er196    9.979   .     S
Er196     Er207    10.012   .     S
Er196     Er205    10.013   .     S
Er196     Er199    10.013   .     S
Er197     Er201    10.012   .     S
Er197     Er202    10.013   .     S
Er197     Er198    9.979   .     S
Er197     Er199    9.979   .     S
Er198     Er201    10.013   .     S
Er198     Er215    10.012   .     S
Er198     Er213    10.013   .     S
Er198     Er200    9.979   .     S
Er199     Er205    10.013   .     S
Er199     Er200    9.979   .     S
Er200     Er206    10.013   .     S
Er200     Er205    10.012   .     S
Er200     Er215    10.013   .     S
Er201     Er213    10.013   .     S
Er201     V222    10.017   .     S
Er201     V224    10.017   .     S
Er201     Er203    9.979   .     S
Er201     Er202    9.979   .     S
Er202     V224    10.017   .     S
Er202     V223    10.017   .     S
Er202     Er204    9.979   .     S
Er203     Er210    10.013   .     S
Er203     Er214    10.013   .     S
Er203     Er213    10.012   .     S
Er203     V221    10.017   .     S
Er203     V222    10.017   .     S
Er203     Er204    9.979   .     S
Er204     Er210    10.012   .     S
Er204     Er209    10.013   .     S
Er204     V223    10.017   .     S
Er204     V221    10.017   .     S
Er205     V188    10.017   1_556     S
Er205     V187    10.017   1_556     S
Er205     Er206    9.979   .     S
Er205     Er207    9.979   .     S
Er206     V187    10.017   1_556     S
Er206     V186    10.017   1_556     S
Er206     Er216    10.012   .     S
Er206     Er215    10.013   .     S
Er206     Er208    9.979   .     S
Er207     V185    10.017   1_556     S
Er207     V188    10.017   1_556     S
Er207     Er212    10.013   .     S
Er207     Er208    9.979   .     S
Er208     V186    10.017   1_556     S
Er208     V185    10.017   1_556     S
Er208     Er211    10.013   .     S
Er208     Er212    10.012   .     S
Er208     Er216    10.013   .     S
Er209     V191    10.017   1_565     S
Er209     V190    10.017   1_565     S
Er209     Er210    9.979   .     S
Er209     Er212    9.979   .     S
Er210     V192    10.017   1_565     S
Er210     V191    10.017   1_565     S
Er210     Er214    10.013   .     S
Er210     Er211    9.979   .     S
Er211     V189    10.017   1_565     S
Er211     V192    10.017   1_565     S
Er211     Er216    10.013   .     S
Er211     Er214    10.012   .     S
Er211     Er212    9.979   .     S
Er212     V190    10.017   1_565     S
Er212     V189    10.017   1_565     S
Er213     V220    10.017   1_655     S
Er213     V219    10.017   1_655     S
Er213     Er214    9.979   .     S
Er213     Er215    9.979   .     S
Er214     V219    10.017   1_655     S
Er214     V218    10.017   1_655     S
Er214     Er216    9.979   .     S
Er215     V217    10.017   1_655     S
Er215     V220    10.017   1_655     S
Er215     Er216    9.979   .     S
Er216     V218    10.017   1_655     S
Er216     V217    10.017   1_655     S
V217     V220    9.935   .     S
V217     V218    9.935   .     S
V217     Er215    10.017   1_455     S
V217     Er216    10.017   1_455     S
V218     V219    9.935   .     S
V218     Er214    10.017   1_455     S
V218     Er216    10.017   1_455     S
V219     V220    9.935   .     S
V219     Er213    10.017   1_455     S
V219     Er214    10.017   1_455     S
V220     Er213    10.017   1_455     S
V220     Er215    10.017   1_455     S
V221     V222    9.935   .     S
V221     V223    9.935   .     S
V221     Er229    10.017   .     S
V221     Er232    10.017   .     S
V222     V224    9.935   .     S
V222     Er231    10.017   .     S
V222     Er232    10.017   .     S
V223     V224    9.935   .     S
V223     Er230    10.017   .     S
V223     Er229    10.017   .     S
V224     Er230    10.017   .     S
V224     Er231    10.017   .     S
V225     V228    9.935   .     S
V225     V226    9.935   .     S
V225     Er252    10.017   1_545     S
V225     Er251    10.017   1_545     S
V225     Er283    10.017   .     S
V225     Er282    10.017   .     S
V226     V227    9.935   .     S
V226     Er252    10.017   1_545     S
V226     Er249    10.017   1_545     S
V226     Er283    10.017   .     S
V226     Er284    10.017   .     S
V227     V228    9.935   .     S
V227     Er250    10.017   1_545     S
V227     Er249    10.017   1_545     S
V227     Er281    10.017   .     S
V227     Er284    10.017   .     S
V228     Er251    10.017   1_545     S
V228     Er250    10.017   1_545     S
V228     Er282    10.017   .     S
V228     Er281    10.017   .     S
Er229     Er251    10.012   .     S
Er229     Er250    10.013   .     S
Er229     Er243    10.013   .     S
Er229     Er232    9.979   .     S
Er229     Er230    9.979   .     S
Er230     Er243    10.012   .     S
Er230     Er242    10.013   .     S
Er230     Er234    10.013   .     S
Er230     Er231    9.979   .     S
Er231     Er236    10.013   .     S
Er231     Er234    10.012   .     S
Er231     Er247    10.013   .     S
Er231     Er232    9.979   .     S
Er232     Er251    10.013   .     S
Er232     Er245    10.013   .     S
Er232     Er247    10.012   .     S
Er233     Er248    10.013   .     S
Er233     Er240    10.013   .     S
Er233     Er237    10.012   .     S
Er233     V260    10.017   .     S
Er233     V259    10.017   .     S
Er233     Er235    9.979   .     S
Er233     Er236    9.979   .     S
Er234     Er242    10.013   .     S
Er234     V258    10.017   .     S
Er234     V257    10.017   .     S
Er234     Er236    9.979   .     S
Er234     Er235    9.979   .     S
Er235     Er242    10.012   .     S
Er235     Er241    10.013   .     S
Er235     Er237    10.013   .     S
Er235     V259    10.017   .     S
Er235     V258    10.017   .     S
Er236     Er247    10.013   .     S
Er236     Er248    10.012   .     S
Er236     V257    10.017   .     S
Er236     V260    10.017   .     S
Er237     Er241    10.013   .     S
Er237     Er240    9.979   .     S
Er237     Er238    9.979   .     S
Er238     Er244    10.013   .     S
Er238     Er241    10.012   .     S
Er238     Er249    10.013   .     S
Er238     Er239    9.979   .     S
Er239     Er246    10.013   .     S
Er239     Er252    10.013   .     S
Er239     Er249    10.012   .     S
Er239     Er240    9.979   .     S
Er240     Er246    10.012   .     S
Er240     Er248    10.013   .     S
Er241     Er244    9.979   .     S
Er241     Er242    9.979   .     S
Er242     Er243    9.979   .     S
Er243     Er250    10.013   .     S
Er243     Er244    9.979   .     S
Er244     Er249    10.013   .     S
Er244     Er250    10.012   .     S
Er245     Er251    10.013   .     S
Er245     Er252    10.012   .     S
Er245     V253    10.017   1_655     S
Er245     V256    10.017   1_655     S
Er245     Er246    9.979   .     S
Er245     Er247    9.979   .     S
Er246     Er252    10.013   .     S
Er246     V256    10.017   1_655     S
Er246     V255    10.017   1_655     S
Er246     Er248    9.979   .     S
Er247     V254    10.017   1_655     S
Er247     V253    10.017   1_655     S
Er247     Er248    9.979   .     S
Er248     V255    10.017   1_655     S
Er248     V254    10.017   1_655     S
Er249     V227    10.017   1_565     S
Er249     V226    10.017   1_565     S
Er249     Er252    9.979   .     S
Er249     Er250    9.979   .     S
Er250     V228    10.017   1_565     S
Er250     V227    10.017   1_565     S
Er250     Er251    9.979   .     S
Er251     V225    10.017   1_565     S
Er251     V228    10.017   1_565     S
Er251     Er252    9.979   .     S
Er252     V226    10.017   1_565     S
Er252     V225    10.017   1_565     S
V253     V256    9.935   .     S
V253     V254    9.935   .     S
V253     Er247    10.017   1_455     S
V253     Er245    10.017   1_455     S
V254     V255    9.935   .     S
V254     Er248    10.017   1_455     S
V254     Er247    10.017   1_455     S
V255     V256    9.935   .     S
V255     Er248    10.017   1_455     S
V255     Er246    10.017   1_455     S
V256     Er245    10.017   1_455     S
V256     Er246    10.017   1_455     S
V257     V260    9.935   .     S
V257     V258    9.935   .     S
V257     Er266    10.017   .     S
V257     Er267    10.017   .     S
V258     V259    9.935   .     S
V258     Er265    10.017   .     S
V258     Er266    10.017   .     S
V259     V260    9.935   .     S
V259     Er265    10.017   .     S
V259     Er268    10.017   .     S
V260     Er267    10.017   .     S
V260     Er268    10.017   .     S
Er261     Er265    10.013   .     S
Er261     Er270    10.013   .     S
Er261     Er269    10.012   .     S
Er261     Er264    9.979   .     S
Er261     Er263    9.979   .     S
Er262     Er281    10.013   .     S
Er262     Er273    10.012   .     S
Er262     Er276    10.013   .     S
Er262     Er264    9.979   .     S
Er262     Er263    9.979   .     S
Er263     Er266    10.013   .     S
Er263     Er265    10.012   .     S
Er263     Er273    10.013   .     S
Er264     Er281    10.012   .     S
Er264     Er284    10.013   .     S
Er264     Er269    10.013   .     S
Er265     Er270    10.013   .     S
Er265     Er268    9.979   .     S
Er265     Er266    9.979   .     S
Er266     Er274    10.012   .     S
Er266     Er273    10.013   .     S
Er266     Er267    9.979   .     S
Er267     Er278    10.013   .     S
Er267     Er279    10.012   .     S
Er267     Er274    10.013   .     S
Er267     Er268    9.979   .     S
Er268     Er279    10.013   .     S
Er268     Er271    10.013   .     S
Er268     Er270    10.012   .     S
Er269     Er284    10.013   .     S
Er269     Er272    9.979   .     S
Er269     Er270    9.979   .     S
Er270     Er271    9.979   .     S
Er271     Er279    10.013   .     S
Er271     Er280    10.012   .     S
Er271     Er272    9.979   .     S
Er272     Er280    10.013   .     S
Er272     Er283    10.013   .     S
Er272     Er284    10.012   .     S
Er273     Er276    9.979   .     S
Er273     Er274    9.979   .     S
Er274     Er278    10.013   .     S
Er274     Er275    9.979   .     S
Er275     Er277    10.013   .     S
Er275     Er278    10.012   .     S
Er275     Er282    10.013   .     S
Er275     Er276    9.979   .     S
Er276     Er282    10.012   .     S
Er276     Er281    10.013   .     S
Er277     Er282    10.013   .     S
Er277     Er283    10.012   .     S
Er277     V286    10.017   1_655     S
Er277     V287    10.017   1_655     S
Er277     Er278    9.979   .     S
Er277     Er280    9.979   .     S
Er278     V285    10.017   1_655     S
Er278     V286    10.017   1_655     S
Er278     Er279    9.979   .     S
Er279     V288    10.017   1_655     S
Er279     V285    10.017   1_655     S
Er279     Er280    9.979   .     S
Er280     Er283    10.013   .     S
Er280     V287    10.017   1_655     S
Er280     V288    10.017   1_655     S
Er281     Er282    9.979   .     S
Er281     Er284    9.979   .     S
Er282     Er283    9.979   .     S
Er283     Er284    9.979   .     S
V285     V286    9.935   .     S
V285     V288    9.935   .     S
V285     Er278    10.017   1_455     S
V285     Er279    10.017   1_455     S
V286     V287    9.935   .     S
V286     Er277    10.017   1_455     S
V286     Er278    10.017   1_455     S
V287     V288    9.935   .     S
V287     Er277    10.017   1_455     S
V287     Er280    10.017   1_455     S
V288     Er280    10.017   1_455     S
V288     Er279    10.017   1_455     S
