data_pto
_audit_creation_date              2020-02-02
_audit_creation_method            'Pymatgen'
_symmetry_space_group_name_H-M    'P1'
_symmetry_Int_Tables_number       1
loop_
_symmetry_equiv_pos_as_xyz
  x,y,z
_cell_length_a                    28.2843
_cell_length_b                    28.2843
_cell_length_c                    28.2843
_cell_angle_alpha                 90.0
_cell_angle_beta                 90.0
_cell_angle_gamma                 90.0
loop_
_atom_site_label
_atom_site_type_symbol
_atom_site_fract_x
_atom_site_fract_y
_atom_site_fract_z
V1     V     0.25   0.25   0.25
Er2     Er     0.0   0.5   0.25
V3     V     0.75   0.75   0.25
Er4     Er     0.25   0.0   0.5
Er5     Er     0.75   0.0   0.5
V6     V     0.25   0.75   0.75
Er7     Er     0.0   0.5   0.75
V8     V     0.75   0.25   0.75
Er9     Er     0.5   0.75   0.0
Er10     Er     0.5   0.25   0.0
V11     V     0.75   0.75   0.75
V12     V     0.75   0.25   0.25
V13     V     0.25   0.25   0.75
V14     V     0.25   0.75   0.25
loop_
_geom_bond_atom_site_label_1
_geom_bond_atom_site_label_2
_geom_bond_distance
_geom_bond_site_symmetry_2
_ccdc_geom_bond_type
V1     Er2    10.0   .     S
V1     Er4    10.0   .     S
V1     Er10    10.0   .     S
Er2     V3    10.0   1_455     S
Er2     V12    10.0   1_455     S
Er2     V14    10.0   .     S
V3     Er2    10.0   1_655     S
V3     Er5    10.0   1_565     S
V3     Er9    10.0   .     S
Er4     V6    10.0   1_545     S
Er4     V13    10.0   .     S
Er4     V14    10.0   1_545     S
Er5     V3    10.0   1_545     S
Er5     V8    10.0   .     S
Er5     V11    10.0   1_545     S
Er5     V12    10.0   .     S
V6     Er4    10.0   1_565     S
V6     Er7    10.0   .     S
V6     Er9    10.0   1_556     S
Er7     V8    10.0   1_455     S
Er7     V11    10.0   1_455     S
Er7     V13    10.0   .     S
V8     Er7    10.0   1_655     S
V8     Er10    10.0   1_556     S
Er9     V6    10.0   1_554     S
Er9     V14    10.0   .     S
Er9     V11    10.0   1_554     S
Er10     V8    10.0   1_554     S
Er10     V12    10.0   .     S
Er10     V13    10.0   1_554     S
V11     Er7    10.0   1_655     S
V11     Er5    10.0   1_565     S
V11     Er9    10.0   1_556     S
V12     Er2    10.0   1_655     S
V13     Er10    10.0   1_556     S
V14     Er4    10.0   1_565     S
