data_pyb
_audit_creation_date              2020-02-02
_audit_creation_method            'Pymatgen'
_symmetry_space_group_name_H-M    'P1'
_symmetry_Int_Tables_number       1
loop_
_symmetry_equiv_pos_as_xyz
  x,y,z
_cell_length_a                    112.5533
_cell_length_b                    112.5533
_cell_length_c                    112.5533
_cell_angle_alpha                 90.0
_cell_angle_beta                 90.0
_cell_angle_gamma                 90.0
loop_
_atom_site_label
_atom_site_type_symbol
_atom_site_fract_x
_atom_site_fract_y
_atom_site_fract_z
V1     V     0.3122   0.375   0.375
V2     V     0.375   0.375   0.4378
V3     V     0.4378   0.375   0.375
V4     V     0.375   0.375   0.3122
V5     V     0.375   0.3122   0.375
V6     V     0.375   0.4378   0.375
V7     V     0.9378   0.875   0.375
V8     V     0.875   0.875   0.4378
V9     V     0.875   0.9378   0.375
V10     V     0.875   0.875   0.3122
V11     V     0.875   0.8122   0.375
V12     V     0.8122   0.875   0.375
V13     V     0.375   0.875   0.9378
V14     V     0.375   0.9378   0.875
V15     V     0.4378   0.875   0.875
V16     V     0.3122   0.875   0.875
V17     V     0.375   0.875   0.8122
V18     V     0.375   0.8122   0.875
V19     V     0.9378   0.375   0.875
V20     V     0.875   0.4378   0.875
V21     V     0.875   0.375   0.9378
V22     V     0.875   0.3122   0.875
V23     V     0.875   0.375   0.8122
V24     V     0.8122   0.375   0.875
V25     V     0.0622   0.125   0.625
V26     V     0.125   0.1878   0.625
V27     V     0.125   0.0622   0.625
V28     V     0.1878   0.125   0.625
V29     V     0.125   0.125   0.5622
V30     V     0.125   0.125   0.6878
V31     V     0.625   0.0622   0.125
V32     V     0.625   0.125   0.0622
V33     V     0.625   0.125   0.1878
V34     V     0.625   0.1878   0.125
V35     V     0.5622   0.125   0.125
V36     V     0.6878   0.125   0.125
V37     V     0.625   0.5622   0.625
V38     V     0.625   0.625   0.5622
V39     V     0.5622   0.625   0.625
V40     V     0.625   0.6878   0.625
V41     V     0.625   0.625   0.6878
V42     V     0.6878   0.625   0.625
V43     V     0.125   0.5622   0.125
V44     V     0.125   0.625   0.0622
V45     V     0.0622   0.625   0.125
V46     V     0.125   0.625   0.1878
V47     V     0.1878   0.625   0.125
V48     V     0.125   0.6878   0.125
S49     S     0.8983   0.1235   0.0629
S50     S     0.8983   0.0629   0.1235
H51     H     0.9877   0.155   0.9268
H52     H     0.9268   0.155   0.9877
S53     S     0.1235   0.0629   0.8983
S54     S     0.0629   0.1235   0.8983
H55     H     0.155   0.9268   0.9877
H56     H     0.155   0.9877   0.9268
S57     S     0.0629   0.8983   0.1235
S58     S     0.1235   0.8983   0.0629
H59     H     0.9268   0.9877   0.155
H60     H     0.9877   0.9268   0.155
S61     S     0.8983   0.6235   0.5629
S62     S     0.8983   0.5629   0.6235
H63     H     0.9268   0.4877   0.655
H64     H     0.9877   0.4268   0.655
S65     S     0.0629   0.3983   0.6235
S66     S     0.1235   0.3983   0.5629
H67     H     0.155   0.4877   0.4268
H68     H     0.155   0.4268   0.4877
S69     S     0.0629   0.6235   0.3983
S70     S     0.1235   0.5629   0.3983
H71     H     0.9268   0.655   0.4877
H72     H     0.9877   0.655   0.4268
S73     S     0.3983   0.6235   0.0629
S74     S     0.3983   0.5629   0.1235
S75     S     0.6235   0.5629   0.8983
S76     S     0.5629   0.6235   0.8983
H77     H     0.4877   0.655   0.9268
H78     H     0.4268   0.655   0.9877
H79     H     0.4877   0.4268   0.155
H80     H     0.4268   0.4877   0.155
S81     S     0.6235   0.3983   0.0629
S82     S     0.5629   0.3983   0.1235
H83     H     0.655   0.4877   0.9268
H84     H     0.655   0.4268   0.9877
H85     H     0.9268   0.7623   0.595
H86     H     0.9877   0.8232   0.595
S87     S     0.8983   0.6265   0.6871
S88     S     0.8983   0.6871   0.6265
H89     H     0.9268   0.595   0.7623
H90     H     0.9877   0.595   0.8232
S91     S     0.1235   0.8517   0.6871
S92     S     0.0629   0.8517   0.6265
S93     S     0.1235   0.6871   0.8517
S94     S     0.0629   0.6265   0.8517
H95     H     0.155   0.7623   0.8232
H96     H     0.155   0.8232   0.7623
S97     S     0.1871   0.3517   0.1235
S98     S     0.1265   0.3517   0.0629
S99     S     0.1871   0.1265   0.8983
S100     S     0.1265   0.1871   0.8983
H101     H     0.095   0.2623   0.9268
H102     H     0.095   0.3232   0.9877
H103     H     0.2623   0.095   0.9268
H104     H     0.3232   0.095   0.9877
S105     S     0.3517   0.1265   0.0629
S106     S     0.3517   0.1871   0.1235
H107     H     0.3232   0.2623   0.155
H108     H     0.2623   0.3232   0.155
H109     H     0.4268   0.595   0.2623
H110     H     0.4877   0.595   0.3232
S111     S     0.3983   0.6871   0.1265
S112     S     0.3983   0.6265   0.1871
H113     H     0.4268   0.7623   0.095
H114     H     0.4877   0.8232   0.095
S115     S     0.6235   0.8517   0.1871
S116     S     0.5629   0.8517   0.1265
S117     S     0.6235   0.6871   0.3517
S118     S     0.5629   0.6265   0.3517
H119     H     0.655   0.7623   0.3232
H120     H     0.655   0.8232   0.2623
Ti121     Ti     0.2612   0.8234   0.8234
Ce122     Ce     0.1789   0.9058   0.9058
Ce123     Ce     0.1789   0.8442   0.8442
Ti124     Ti     0.2612   0.9266   0.9266
Ti125     Ti     0.4266   0.8234   0.9888
Ce126     Ce     0.3442   0.9058   0.0711
Ce127     Ce     0.4058   0.8442   0.0711
Ti128     Ti     0.3234   0.9266   0.9888
Ti129     Ti     0.3234   0.7612   0.8234
Ce130     Ce     0.3442   0.6789   0.8442
Ce131     Ce     0.4058   0.6789   0.9058
Ti132     Ti     0.4266   0.7612   0.9266
Ti133     Ti     0.3234   0.8234   0.7612
Ce134     Ce     0.3442   0.8442   0.6789
Ce135     Ce     0.4058   0.9058   0.6789
Ti136     Ti     0.4266   0.9266   0.7612
Ti137     Ti     0.3234   0.9888   0.9266
Ce138     Ce     0.3442   0.0711   0.9058
Ce139     Ce     0.4058   0.0711   0.8442
Ti140     Ti     0.4266   0.9888   0.8234
Ti141     Ti     0.4888   0.8234   0.9266
Ce142     Ce     0.5711   0.9058   0.8442
Ce143     Ce     0.5711   0.8442   0.9058
Ti144     Ti     0.4888   0.9266   0.8234
S145     S     0.1871   0.3983   0.6265
S146     S     0.1265   0.3983   0.6871
H147     H     0.095   0.4268   0.7623
H148     H     0.095   0.4877   0.8232
H149     H     0.3232   0.4877   0.595
H150     H     0.2623   0.4268   0.595
S151     S     0.1871   0.6235   0.8517
S152     S     0.1265   0.5629   0.8517
S153     S     0.3517   0.6235   0.6871
S154     S     0.3517   0.5629   0.6265
H155     H     0.3232   0.655   0.7623
H156     H     0.2623   0.655   0.8232
S157     S     0.1235   0.3517   0.1871
S158     S     0.0629   0.3517   0.1265
H159     H     0.9268   0.2623   0.095
H160     H     0.9877   0.3232   0.095
S161     S     0.8983   0.1265   0.1871
S162     S     0.8983   0.1871   0.1265
H163     H     0.9877   0.095   0.3232
H164     H     0.9268   0.095   0.2623
S165     S     0.1235   0.1871   0.3517
S166     S     0.0629   0.1265   0.3517
H167     H     0.155   0.3232   0.2623
H168     H     0.155   0.2623   0.3232
S169     S     0.5629   0.8983   0.6235
S170     S     0.6235   0.8983   0.5629
H171     H     0.655   0.9268   0.4877
H172     H     0.655   0.9877   0.4268
S173     S     0.6235   0.0629   0.3983
S174     S     0.5629   0.1235   0.3983
H175     H     0.4877   0.155   0.4268
H176     H     0.4268   0.155   0.4877
S177     S     0.3983   0.0629   0.6235
S178     S     0.3983   0.1235   0.5629
H179     H     0.4877   0.9268   0.655
H180     H     0.4268   0.9877   0.655
H181     H     0.7623   0.595   0.9268
H182     H     0.8232   0.595   0.9877
S183     S     0.6265   0.6871   0.8983
S184     S     0.6871   0.6265   0.8983
H185     H     0.595   0.7623   0.9268
H186     H     0.595   0.8232   0.9877
S187     S     0.8517   0.6871   0.1235
S188     S     0.8517   0.6265   0.0629
S189     S     0.6871   0.8517   0.1235
S190     S     0.6265   0.8517   0.0629
H191     H     0.7623   0.8232   0.155
H192     H     0.8232   0.7623   0.155
S193     S     0.6235   0.1871   0.8517
S194     S     0.5629   0.1265   0.8517
S195     S     0.6235   0.3517   0.6871
S196     S     0.5629   0.3517   0.6265
H197     H     0.655   0.3232   0.7623
H198     H     0.655   0.2623   0.8232
H199     H     0.4877   0.3232   0.595
H200     H     0.4268   0.2623   0.595
S201     S     0.3983   0.1265   0.6871
S202     S     0.3983   0.1871   0.6265
H203     H     0.4268   0.095   0.7623
H204     H     0.4877   0.095   0.8232
S205     S     0.8517   0.1871   0.6235
S206     S     0.8517   0.1265   0.5629
S207     S     0.6871   0.3517   0.6235
S208     S     0.6265   0.3517   0.5629
H209     H     0.7623   0.3232   0.655
H210     H     0.8232   0.2623   0.655
H211     H     0.595   0.2623   0.4268
H212     H     0.595   0.3232   0.4877
S213     S     0.6871   0.1265   0.3983
S214     S     0.6265   0.1871   0.3983
H215     H     0.8232   0.095   0.4877
H216     H     0.7623   0.095   0.4268
Ti217     Ti     0.7612   0.8234   0.3234
Ce218     Ce     0.6789   0.8442   0.3442
Ce219     Ce     0.6789   0.9058   0.4058
Ti220     Ti     0.7612   0.9266   0.4266
Ti221     Ti     0.8234   0.9888   0.4266
Ce222     Ce     0.9058   0.0711   0.3442
Ce223     Ce     0.8442   0.0711   0.4058
Ti224     Ti     0.9266   0.9888   0.3234
Ti225     Ti     0.8234   0.7612   0.3234
Ce226     Ce     0.8442   0.6789   0.3442
Ce227     Ce     0.9058   0.6789   0.4058
Ti228     Ti     0.9266   0.7612   0.4266
Ti229     Ti     0.8234   0.9266   0.4888
Ce230     Ce     0.9058   0.8442   0.5711
Ce231     Ce     0.8442   0.9058   0.5711
Ti232     Ti     0.9266   0.8234   0.4888
Ti233     Ti     0.8234   0.8234   0.2612
Ce234     Ce     0.9058   0.9058   0.1789
Ce235     Ce     0.8442   0.8442   0.1789
Ti236     Ti     0.9266   0.9266   0.2612
Ti237     Ti     0.9888   0.8234   0.4266
Ce238     Ce     0.0711   0.9058   0.3442
Ce239     Ce     0.0711   0.8442   0.4058
Ti240     Ti     0.9888   0.9266   0.3234
H241     H     0.3232   0.155   0.2623
H242     H     0.2623   0.155   0.3232
S243     S     0.3517   0.1235   0.1871
S244     S     0.3517   0.0629   0.1265
H245     H     0.3232   0.9877   0.095
H246     H     0.2623   0.9268   0.095
S247     S     0.1871   0.8983   0.1265
S248     S     0.1265   0.8983   0.1871
S249     S     0.1871   0.1235   0.3517
S250     S     0.1265   0.0629   0.3517
H251     H     0.095   0.9268   0.2623
H252     H     0.095   0.9877   0.3232
S253     S     0.3517   0.6871   0.6235
S254     S     0.3517   0.6265   0.5629
H255     H     0.3232   0.7623   0.655
H256     H     0.2623   0.8232   0.655
S257     S     0.1871   0.8517   0.6235
S258     S     0.1265   0.8517   0.5629
H259     H     0.3232   0.595   0.4877
H260     H     0.2623   0.595   0.4268
S261     S     0.1265   0.6871   0.3983
S262     S     0.1871   0.6265   0.3983
H263     H     0.095   0.7623   0.4268
H264     H     0.095   0.8232   0.4877
Ti265     Ti     0.3234   0.4266   0.4888
Ce266     Ce     0.4058   0.3442   0.5711
Ce267     Ce     0.3442   0.4058   0.5711
Ti268     Ti     0.4266   0.3234   0.4888
Ti269     Ti     0.4888   0.4266   0.3234
Ce270     Ce     0.5711   0.3442   0.4058
Ce271     Ce     0.5711   0.4058   0.3442
Ti272     Ti     0.4888   0.3234   0.4266
Ti273     Ti     0.4266   0.4888   0.3234
Ce274     Ce     0.3442   0.5711   0.4058
Ce275     Ce     0.4058   0.5711   0.3442
Ti276     Ti     0.3234   0.4888   0.4266
Ti277     Ti     0.3234   0.2612   0.3234
Ce278     Ce     0.3442   0.1789   0.3442
Ce279     Ce     0.4058   0.1789   0.4058
Ti280     Ti     0.4266   0.2612   0.4266
Ti281     Ti     0.2612   0.3234   0.3234
Ce282     Ce     0.1789   0.3442   0.3442
Ce283     Ce     0.1789   0.4058   0.4058
Ti284     Ti     0.2612   0.4266   0.4266
Ti285     Ti     0.4266   0.4266   0.2612
Ce286     Ce     0.3442   0.3442   0.1789
Ce287     Ce     0.4058   0.4058   0.1789
Ti288     Ti     0.3234   0.3234   0.2612
S289     S     0.8517   0.6235   0.1871
S290     S     0.8517   0.5629   0.1265
S291     S     0.6871   0.6235   0.3517
S292     S     0.6265   0.5629   0.3517
H293     H     0.7623   0.655   0.3232
H294     H     0.8232   0.655   0.2623
H295     H     0.595   0.4877   0.3232
H296     H     0.595   0.4268   0.2623
S297     S     0.6871   0.3983   0.1265
S298     S     0.6265   0.3983   0.1871
H299     H     0.7623   0.4268   0.095
H300     H     0.8232   0.4877   0.095
Ti301     Ti     0.8234   0.2612   0.8234
Ce302     Ce     0.8442   0.1789   0.8442
Ce303     Ce     0.9058   0.1789   0.9058
Ti304     Ti     0.9266   0.2612   0.9266
Ti305     Ti     0.7612   0.3234   0.8234
Ce306     Ce     0.6789   0.4058   0.9058
Ce307     Ce     0.6789   0.3442   0.8442
Ti308     Ti     0.7612   0.4266   0.9266
Ti309     Ti     0.8234   0.4266   0.9888
Ce310     Ce     0.9058   0.3442   0.0711
Ce311     Ce     0.8442   0.4058   0.0711
Ti312     Ti     0.9266   0.3234   0.9888
Ti313     Ti     0.8234   0.4888   0.9266
Ce314     Ce     0.9058   0.5711   0.8442
Ce315     Ce     0.8442   0.5711   0.9058
Ti316     Ti     0.9266   0.4888   0.8234
Ti317     Ti     0.9266   0.4266   0.7612
Ce318     Ce     0.8442   0.3442   0.6789
Ce319     Ce     0.9058   0.4058   0.6789
Ti320     Ti     0.8234   0.3234   0.7612
Ti321     Ti     0.9888   0.3234   0.9266
Ce322     Ce     0.0711   0.3442   0.9058
Ce323     Ce     0.0711   0.4058   0.8442
Ti324     Ti     0.9888   0.4266   0.8234
S325     S     0.8517   0.1235   0.6871
S326     S     0.8517   0.0629   0.6265
S327     S     0.6871   0.1235   0.8517
S328     S     0.6265   0.0629   0.8517
H329     H     0.7623   0.155   0.8232
H330     H     0.8232   0.155   0.7623
H331     H     0.7623   0.9268   0.595
H332     H     0.8232   0.9877   0.595
S333     S     0.6871   0.8983   0.6265
S334     S     0.6265   0.8983   0.6871
H335     H     0.595   0.9268   0.7623
H336     H     0.595   0.9877   0.8232
S337     S     0.3765   0.4371   0.1017
S338     S     0.4371   0.3765   0.1017
H339     H     0.5732   0.345   0.0123
H340     H     0.5123   0.345   0.0732
S341     S     0.6017   0.4371   0.8765
S342     S     0.6017   0.3765   0.9371
H343     H     0.345   0.5732   0.0123
H344     H     0.345   0.5123   0.0732
S345     S     0.4371   0.6017   0.8765
S346     S     0.3765   0.6017   0.9371
H347     H     0.5732   0.5123   0.845
H348     H     0.5123   0.5732   0.845
H349     H     0.0732   0.345   0.5123
H350     H     0.0123   0.345   0.5732
S351     S     0.8765   0.4371   0.6017
S352     S     0.9371   0.3765   0.6017
H353     H     0.845   0.5123   0.5732
H354     H     0.845   0.5732   0.5123
S355     S     0.1017   0.4371   0.3765
S356     S     0.1017   0.3765   0.4371
S357     S     0.8765   0.6017   0.4371
S358     S     0.9371   0.6017   0.3765
H359     H     0.0123   0.5732   0.345
H360     H     0.0732   0.5123   0.345
S361     S     0.4371   0.8765   0.6017
S362     S     0.3765   0.9371   0.6017
S363     S     0.6017   0.8765   0.4371
S364     S     0.6017   0.9371   0.3765
H365     H     0.5732   0.845   0.5123
H366     H     0.5123   0.845   0.5732
H367     H     0.5732   0.0123   0.345
H368     H     0.5123   0.0732   0.345
S369     S     0.3765   0.1017   0.4371
S370     S     0.4371   0.1017   0.3765
H371     H     0.345   0.0123   0.5732
H372     H     0.345   0.0732   0.5123
H373     H     0.905   0.5123   0.1768
H374     H     0.905   0.5732   0.2377
S375     S     0.8129   0.6017   0.3735
S376     S     0.8735   0.6017   0.3129
H377     H     0.7377   0.5732   0.405
H378     H     0.6768   0.5123   0.405
S379     S     0.6483   0.3765   0.3129
S380     S     0.6483   0.4371   0.3735
S381     S     0.8129   0.3765   0.1483
S382     S     0.8735   0.4371   0.1483
H383     H     0.7377   0.345   0.1768
H384     H     0.6768   0.345   0.2377
S385     S     0.3765   0.1483   0.8129
S386     S     0.4371   0.1483   0.8735
H387     H     0.345   0.1768   0.7377
H388     H     0.345   0.2377   0.6768
S389     S     0.3765   0.3129   0.6483
S390     S     0.4371   0.3735   0.6483
H391     H     0.5732   0.2377   0.905
H392     H     0.5123   0.1768   0.905
S393     S     0.6017   0.3735   0.8129
S394     S     0.6017   0.3129   0.8735
H395     H     0.5732   0.405   0.7377
H396     H     0.5123   0.405   0.6768
S397     S     0.6483   0.3129   0.3765
S398     S     0.6483   0.3735   0.4371
S399     S     0.8129   0.1483   0.3765
S400     S     0.8735   0.1483   0.4371
H401     H     0.7377   0.1768   0.345
H402     H     0.6768   0.2377   0.345
H403     H     0.905   0.2377   0.5732
H404     H     0.905   0.1768   0.5123
S405     S     0.8129   0.3735   0.6017
S406     S     0.8735   0.3129   0.6017
H407     H     0.7377   0.405   0.5732
H408     H     0.6768   0.405   0.5123
S409     S     0.6483   0.8129   0.8765
S410     S     0.6483   0.8735   0.9371
S411     S     0.8129   0.6483   0.8765
S412     S     0.8735   0.6483   0.9371
H413     H     0.7377   0.6768   0.845
H414     H     0.6768   0.7377   0.845
H415     H     0.905   0.7377   0.0732
H416     H     0.905   0.6768   0.0123
S417     S     0.8129   0.8735   0.1017
S418     S     0.8735   0.8129   0.1017
H419     H     0.7377   0.905   0.0732
H420     H     0.6768   0.905   0.0123
S421     S     0.8765   0.6483   0.8129
S422     S     0.9371   0.6483   0.8735
S423     S     0.8765   0.8129   0.6483
S424     S     0.9371   0.8735   0.6483
H425     H     0.845   0.6768   0.7377
H426     H     0.845   0.7377   0.6768
H427     H     0.0732   0.905   0.7377
H428     H     0.0123   0.905   0.6768
S429     S     0.1017   0.8735   0.8129
S430     S     0.1017   0.8129   0.8735
H431     H     0.0732   0.7377   0.905
H432     H     0.0123   0.6768   0.905
Ti433     Ti     0.5734   0.5112   0.6766
Ce434     Ce     0.6558   0.4289   0.5942
Ce435     Ce     0.5942   0.4289   0.6558
Ti436     Ti     0.6766   0.5112   0.5734
Ti437     Ti     0.5112   0.5734   0.6766
Ce438     Ce     0.4289   0.6558   0.5942
Ce439     Ce     0.4289   0.5942   0.6558
Ti440     Ti     0.5112   0.6766   0.5734
Ti441     Ti     0.6766   0.5734   0.5112
Ce442     Ce     0.6558   0.5942   0.4289
Ce443     Ce     0.5942   0.6558   0.4289
Ti444     Ti     0.5734   0.6766   0.5112
Ti445     Ti     0.5734   0.5734   0.7388
Ce446     Ce     0.6558   0.6558   0.8211
Ce447     Ce     0.5942   0.5942   0.8211
Ti448     Ti     0.6766   0.6766   0.7388
Ti449     Ti     0.7388   0.5734   0.5734
Ce450     Ce     0.8211   0.6558   0.6558
Ce451     Ce     0.8211   0.5942   0.5942
Ti452     Ti     0.7388   0.6766   0.6766
Ti453     Ti     0.5734   0.7388   0.5734
Ce454     Ce     0.6558   0.8211   0.6558
Ce455     Ce     0.5942   0.8211   0.5942
Ti456     Ti     0.6766   0.7388   0.6766
S457     S     0.8129   0.8765   0.6483
S458     S     0.8735   0.9371   0.6483
S459     S     0.6483   0.8765   0.8129
S460     S     0.6483   0.9371   0.8735
H461     H     0.7377   0.845   0.6768
H462     H     0.6768   0.845   0.7377
H463     H     0.905   0.0732   0.7377
H464     H     0.905   0.0123   0.6768
S465     S     0.8129   0.1017   0.8735
S466     S     0.8735   0.1017   0.8129
H467     H     0.7377   0.0732   0.905
H468     H     0.6768   0.0123   0.905
Ti469     Ti     0.6766   0.2388   0.1766
Ce470     Ce     0.6558   0.3211   0.1558
Ce471     Ce     0.5942   0.3211   0.0942
Ti472     Ti     0.5734   0.2388   0.0734
Ti473     Ti     0.6766   0.1766   0.2388
Ce474     Ce     0.6558   0.1558   0.3211
Ce475     Ce     0.5942   0.0942   0.3211
Ti476     Ti     0.5734   0.0734   0.2388
Ti477     Ti     0.6766   0.0112   0.0734
Ce478     Ce     0.5942   0.9289   0.1558
Ce479     Ce     0.6558   0.9289   0.0942
Ti480     Ti     0.5734   0.0112   0.1766
Ti481     Ti     0.5734   0.1766   0.0112
Ce482     Ce     0.5942   0.1558   0.9289
Ce483     Ce     0.6558   0.0942   0.9289
Ti484     Ti     0.6766   0.0734   0.0112
Ti485     Ti     0.5112   0.1766   0.0734
Ce486     Ce     0.4289   0.0942   0.1558
Ce487     Ce     0.4289   0.1558   0.0942
Ti488     Ti     0.5112   0.0734   0.1766
Ti489     Ti     0.7388   0.1766   0.1766
Ce490     Ce     0.8211   0.1558   0.1558
Ce491     Ce     0.8211   0.0942   0.0942
Ti492     Ti     0.7388   0.0734   0.0734
S493     S     0.9371   0.1017   0.8765
S494     S     0.8765   0.1017   0.9371
H495     H     0.0123   0.0732   0.845
H496     H     0.0732   0.0123   0.845
S497     S     0.8765   0.9371   0.1017
S498     S     0.9371   0.8765   0.1017
H499     H     0.845   0.0732   0.0123
H500     H     0.845   0.0123   0.0732
S501     S     0.1017   0.8765   0.9371
S502     S     0.1017   0.9371   0.8765
H503     H     0.0123   0.845   0.0732
H504     H     0.0732   0.845   0.0123
H505     H     0.5732   0.905   0.2377
H506     H     0.5123   0.905   0.1768
S507     S     0.6017   0.8129   0.3735
S508     S     0.6017   0.8735   0.3129
H509     H     0.5732   0.7377   0.405
H510     H     0.5123   0.6768   0.405
S511     S     0.3765   0.6483   0.3129
S512     S     0.4371   0.6483   0.3735
S513     S     0.3765   0.8129   0.1483
S514     S     0.4371   0.8735   0.1483
H515     H     0.345   0.6768   0.2377
H516     H     0.345   0.7377   0.1768
S517     S     0.1483   0.8765   0.3129
S518     S     0.1483   0.9371   0.3735
H519     H     0.1768   0.845   0.2377
H520     H     0.2377   0.845   0.1768
S521     S     0.3129   0.8765   0.1483
S522     S     0.3735   0.9371   0.1483
H523     H     0.1768   0.0123   0.405
H524     H     0.2377   0.0732   0.405
S525     S     0.3129   0.1017   0.3735
S526     S     0.3735   0.1017   0.3129
H527     H     0.405   0.0732   0.2377
H528     H     0.405   0.0123   0.1768
Ti529     Ti     0.1766   0.2388   0.6766
Ce530     Ce     0.1558   0.3211   0.6558
Ce531     Ce     0.0942   0.3211   0.5942
Ti532     Ti     0.0734   0.2388   0.5734
Ti533     Ti     0.2388   0.1766   0.6766
Ce534     Ce     0.3211   0.1558   0.6558
Ce535     Ce     0.3211   0.0942   0.5942
Ti536     Ti     0.2388   0.0734   0.5734
Ti537     Ti     0.1766   0.0734   0.5112
Ce538     Ce     0.0942   0.1558   0.4289
Ce539     Ce     0.1558   0.0942   0.4289
Ti540     Ti     0.0734   0.1766   0.5112
Ti541     Ti     0.1766   0.0112   0.5734
Ce542     Ce     0.1558   0.9289   0.5942
Ce543     Ce     0.0942   0.9289   0.6558
Ti544     Ti     0.0734   0.0112   0.6766
Ti545     Ti     0.0112   0.1766   0.5734
Ce546     Ce     0.9289   0.1558   0.5942
Ce547     Ce     0.9289   0.0942   0.6558
Ti548     Ti     0.0112   0.0734   0.6766
Ti549     Ti     0.1766   0.1766   0.7388
Ce550     Ce     0.1558   0.1558   0.8211
Ce551     Ce     0.0942   0.0942   0.8211
Ti552     Ti     0.0734   0.0734   0.7388
S553     S     0.1483   0.3129   0.8765
S554     S     0.1483   0.3735   0.9371
S555     S     0.3129   0.1483   0.8765
S556     S     0.3735   0.1483   0.9371
H557     H     0.1768   0.2377   0.845
H558     H     0.2377   0.1768   0.845
H559     H     0.2377   0.405   0.0732
H560     H     0.1768   0.405   0.0123
S561     S     0.3129   0.3735   0.1017
S562     S     0.3735   0.3129   0.1017
H563     H     0.405   0.2377   0.0732
H564     H     0.405   0.1768   0.0123
H565     H     0.2377   0.5732   0.905
H566     H     0.1768   0.5123   0.905
S567     S     0.3735   0.6017   0.8129
S568     S     0.3129   0.6017   0.8735
H569     H     0.405   0.5732   0.7377
H570     H     0.405   0.5123   0.6768
S571     S     0.3129   0.3765   0.6483
S572     S     0.3735   0.4371   0.6483
S573     S     0.1483   0.3765   0.8129
S574     S     0.1483   0.4371   0.8735
H575     H     0.1768   0.345   0.7377
H576     H     0.2377   0.345   0.6768
S577     S     0.8765   0.3129   0.1483
S578     S     0.9371   0.3735   0.1483
H579     H     0.845   0.1768   0.2377
H580     H     0.845   0.2377   0.1768
S581     S     0.8765   0.1483   0.3129
S582     S     0.9371   0.1483   0.3735
H583     H     0.0732   0.2377   0.405
H584     H     0.0123   0.1768   0.405
S585     S     0.1017   0.3129   0.3735
S586     S     0.1017   0.3735   0.3129
H587     H     0.0123   0.405   0.1768
H588     H     0.0732   0.405   0.2377
Ti589     Ti     0.1766   0.5112   0.0734
Ce590     Ce     0.0942   0.4289   0.1558
Ce591     Ce     0.1558   0.4289   0.0942
Ti592     Ti     0.0734   0.5112   0.1766
Ti593     Ti     0.2388   0.6766   0.1766
Ce594     Ce     0.3211   0.5942   0.0942
Ce595     Ce     0.3211   0.6558   0.1558
Ti596     Ti     0.2388   0.5734   0.0734
Ti597     Ti     0.0734   0.5734   0.2388
Ce598     Ce     0.1558   0.6558   0.3211
Ce599     Ce     0.0942   0.5942   0.3211
Ti600     Ti     0.1766   0.6766   0.2388
Ti601     Ti     0.1766   0.7388   0.1766
Ce602     Ce     0.1558   0.8211   0.1558
Ce603     Ce     0.0942   0.8211   0.0942
Ti604     Ti     0.0734   0.7388   0.0734
Ti605     Ti     0.0734   0.6766   0.0112
Ce606     Ce     0.0942   0.6558   0.9289
Ce607     Ce     0.1558   0.5942   0.9289
Ti608     Ti     0.1766   0.5734   0.0112
Ti609     Ti     0.0112   0.5734   0.1766
Ce610     Ce     0.9289   0.5942   0.1558
Ce611     Ce     0.9289   0.6558   0.0942
Ti612     Ti     0.0112   0.6766   0.0734
H613     H     0.2377   0.905   0.5732
H614     H     0.1768   0.905   0.5123
S615     S     0.1483   0.8129   0.3765
S616     S     0.1483   0.8735   0.4371
H617     H     0.1768   0.7377   0.345
H618     H     0.2377   0.6768   0.345
S619     S     0.3129   0.6483   0.3765
S620     S     0.3735   0.6483   0.4371
S621     S     0.3129   0.8735   0.6017
S622     S     0.3735   0.8129   0.6017
H623     H     0.405   0.7377   0.5732
H624     H     0.405   0.6768   0.5123
Er625     Er     0.7605   0.2605   0.1974
Er626     Er     0.1974   0.2605   0.7605
Er627     Er     0.1974   0.9895   0.4895
Er628     Er     0.4474   0.5105   0.2395
Er629     Er     0.2605   0.4895   0.0526
Er630     Er     0.2605   0.1974   0.7605
Er631     Er     0.7395   0.2395   0.8026
Er632     Er     0.9895   0.7605   0.0526
Er633     Er     0.7605   0.0526   0.9895
Er634     Er     0.1974   0.7605   0.2605
Er635     Er     0.2605   0.2605   0.6974
Er636     Er     0.8026   0.2395   0.7395
Er637     Er     0.0526   0.2605   0.4895
Er638     Er     0.7605   0.5526   0.4895
Er639     Er     0.4474   0.0105   0.7395
Er640     Er     0.5526   0.7605   0.4895
Er641     Er     0.2395   0.8026   0.7395
Er642     Er     0.0105   0.7395   0.4474
Er643     Er     0.2605   0.7605   0.1974
Er644     Er     0.7605   0.1974   0.2605
Er645     Er     0.7395   0.7395   0.3026
Er646     Er     0.7605   0.4895   0.5526
Er647     Er     0.7395   0.5105   0.9474
Er648     Er     0.3026   0.7395   0.7395
Er649     Er     0.5105   0.9474   0.7395
Er650     Er     0.5526   0.4895   0.7605
Er651     Er     0.7395   0.9474   0.5105
Er652     Er     0.0526   0.9895   0.7605
Er653     Er     0.5105   0.7395   0.9474
Er654     Er     0.4895   0.7605   0.5526
Er655     Er     0.7395   0.3026   0.7395
Er656     Er     0.7395   0.4474   0.0105
Er657     Er     0.9474   0.5105   0.7395
Er658     Er     0.7605   0.9895   0.0526
Er659     Er     0.9895   0.0526   0.7605
Er660     Er     0.0526   0.7605   0.9895
Er661     Er     0.2605   0.0526   0.4895
Er662     Er     0.7395   0.0105   0.4474
Er663     Er     0.7605   0.6974   0.7605
Er664     Er     0.2395   0.7395   0.8026
Er665     Er     0.2605   0.9895   0.5526
Er666     Er     0.6974   0.9895   0.9895
Er667     Er     0.0105   0.4474   0.7395
Er668     Er     0.6974   0.7605   0.7605
Er669     Er     0.4895   0.5526   0.7605
Er670     Er     0.8026   0.7395   0.2395
Er671     Er     0.7605   0.7605   0.6974
Er672     Er     0.4474   0.7395   0.0105
Er673     Er     0.5526   0.2605   0.9895
Er674     Er     0.6974   0.2605   0.2605
Er675     Er     0.4895   0.2605   0.0526
Er676     Er     0.2605   0.6974   0.2605
Er677     Er     0.2605   0.5526   0.9895
Er678     Er     0.9474   0.0105   0.2395
Er679     Er     0.7395   0.8026   0.2395
Er680     Er     0.9474   0.7395   0.5105
Er681     Er     0.3026   0.2395   0.2395
Er682     Er     0.4895   0.0526   0.2605
Er683     Er     0.9895   0.2605   0.5526
Er684     Er     0.9895   0.5526   0.2605
Er685     Er     0.5105   0.2395   0.4474
Er686     Er     0.9895   0.4895   0.1974
Er687     Er     0.9895   0.1974   0.4895
Er688     Er     0.4895   0.9895   0.1974
Er689     Er     0.1974   0.4895   0.9895
Er690     Er     0.4895   0.1974   0.9895
Er691     Er     0.0526   0.4895   0.2605
Er692     Er     0.5105   0.4474   0.2395
Er693     Er     0.6974   0.4895   0.4895
Er694     Er     0.4895   0.6974   0.4895
Er695     Er     0.4895   0.4895   0.6974
Er696     Er     0.0105   0.2395   0.9474
Er697     Er     0.4474   0.2395   0.5105
Er698     Er     0.2395   0.9474   0.0105
Er699     Er     0.5526   0.9895   0.2605
Er700     Er     0.2395   0.2395   0.3026
Er701     Er     0.0105   0.9474   0.2395
Er702     Er     0.9474   0.2395   0.0105
Er703     Er     0.2395   0.4474   0.5105
Er704     Er     0.3026   0.5105   0.5105
Er705     Er     0.5105   0.3026   0.5105
Er706     Er     0.5105   0.5105   0.3026
Er707     Er     0.0105   0.0105   0.3026
Er708     Er     0.3026   0.0105   0.0105
Er709     Er     0.0105   0.3026   0.0105
Er710     Er     0.0105   0.5105   0.8026
Er711     Er     0.0105   0.8026   0.5105
Er712     Er     0.2395   0.5105   0.4474
Er713     Er     0.5105   0.0105   0.8026
Er714     Er     0.8026   0.5105   0.0105
Er715     Er     0.5105   0.8026   0.0105
Er716     Er     0.2395   0.3026   0.2395
Er717     Er     0.9895   0.9895   0.6974
Er718     Er     0.9895   0.6974   0.9895
Er719     Er     0.2395   0.0105   0.9474
Er720     Er     0.8026   0.0105   0.5105
He721     He     0.7897   0.9603   0.6745
He722     He     0.9603   0.6745   0.7897
He723     He     0.9603   0.7897   0.6745
He724     He     0.6745   0.9603   0.7897
He725     He     0.6745   0.7897   0.9603
He726     He     0.6745   0.2897   0.4603
He727     He     0.8255   0.5397   0.2103
He728     He     0.2897   0.4603   0.6745
He729     He     0.6745   0.4603   0.2897
He730     He     0.2897   0.6745   0.4603
He731     He     0.4603   0.6745   0.2897
He732     He     0.2103   0.0397   0.3255
He733     He     0.0397   0.3255   0.2103
He734     He     0.4603   0.2897   0.6745
He735     He     0.7897   0.6745   0.9603
He736     He     0.5397   0.2103   0.8255
He737     He     0.5397   0.3255   0.7103
He738     He     0.4245   0.5397   0.0397
He739     He     0.2897   0.0755   0.2897
He740     He     0.8255   0.0397   0.7103
He741     He     0.7103   0.2103   0.4245
He742     He     0.3255   0.2103   0.0397
He743     He     0.4245   0.7103   0.2103
He744     He     0.1745   0.9603   0.2897
He745     He     0.5397   0.0397   0.4245
He746     He     0.4603   0.0755   0.4603
He747     He     0.2897   0.1745   0.9603
He748     He     0.0397   0.2103   0.3255
He749     He     0.3255   0.0397   0.2103
He750     He     0.2103   0.3255   0.0397
He751     He     0.2103   0.7103   0.4245
He752     He     0.1745   0.4603   0.7897
He753     He     0.7897   0.1745   0.4603
He754     He     0.2897   0.2897   0.0755
He755     He     0.1745   0.2897   0.9603
He756     He     0.9603   0.2897   0.1745
He757     He     0.0397   0.7103   0.8255
He758     He     0.9603   0.0755   0.9603
He759     He     0.3255   0.7103   0.5397
He760     He     0.5397   0.8255   0.2103
He761     He     0.5397   0.7103   0.3255
He762     He     0.4245   0.2103   0.7103
He763     He     0.7103   0.4245   0.2103
He764     He     0.7897   0.4603   0.1745
He765     He     0.3255   0.5397   0.7103
He766     He     0.7103   0.3255   0.5397
He767     He     0.4603   0.7897   0.1745
He768     He     0.1745   0.7897   0.4603
He769     He     0.4603   0.1745   0.7897
He770     He     0.9603   0.5755   0.4603
He771     He     0.7897   0.5755   0.2897
He772     He     0.4245   0.0397   0.5397
He773     He     0.2897   0.9603   0.1745
He774     He     0.0397   0.4245   0.5397
He775     He     0.9603   0.1745   0.2897
He776     He     0.0397   0.5397   0.4245
He777     He     0.5755   0.4603   0.9603
He778     He     0.5755   0.2897   0.7897
He779     He     0.4603   0.5755   0.9603
He780     He     0.5397   0.4245   0.0397
He781     He     0.5755   0.7897   0.2897
He782     He     0.2103   0.4245   0.7103
He783     He     0.2897   0.5755   0.7897
He784     He     0.9245   0.0397   0.0397
He785     He     0.8255   0.7103   0.0397
He786     He     0.7897   0.2897   0.5755
He787     He     0.7103   0.0397   0.8255
He788     He     0.0397   0.0397   0.9245
He789     He     0.0397   0.8255   0.7103
He790     He     0.0397   0.9245   0.0397
He791     He     0.2897   0.7897   0.5755
He792     He     0.7897   0.7897   0.0755
He793     He     0.2103   0.8255   0.5397
He794     He     0.2103   0.2103   0.9245
He795     He     0.2103   0.5397   0.8255
He796     He     0.9245   0.2103   0.2103
He797     He     0.8255   0.2103   0.5397
He798     He     0.0755   0.7897   0.7897
He799     He     0.5755   0.9603   0.4603
He800     He     0.2103   0.9245   0.2103
He801     He     0.0755   0.2897   0.2897
He802     He     0.4603   0.4603   0.0755
He803     He     0.7103   0.8255   0.0397
He804     He     0.0755   0.4603   0.4603
He805     He     0.7103   0.5397   0.3255
He806     He     0.7103   0.7103   0.9245
He807     He     0.7103   0.9245   0.7103
He808     He     0.5397   0.9245   0.5397
He809     He     0.5397   0.5397   0.9245
He810     He     0.9245   0.7103   0.7103
He811     He     0.9245   0.5397   0.5397
He812     He     0.7897   0.0755   0.7897
He813     He     0.0755   0.9603   0.9603
He814     He     0.9603   0.9603   0.0755
He815     He     0.9603   0.4603   0.5755
He816     He     0.4603   0.9603   0.5755
loop_
_geom_bond_atom_site_label_1
_geom_bond_atom_site_label_2
_geom_bond_distance
_geom_bond_site_symmetry_2
_ccdc_geom_bond_type
V1     Ti281    10.024   .     S
V1     Ti284    10.024   .     S
V1     V6    9.996   .     S
V1     V5    9.996   .     S
V1     V4    9.996   .     S
V1     V2    9.996   .     S
V2     Ti268    10.024   .     S
V2     Ti265    10.024   .     S
V2     V5    9.996   .     S
V2     V3    9.996   .     S
V2     V6    9.996   .     S
V3     Ti269    10.024   .     S
V3     Ti272    10.024   .     S
V3     V5    9.996   .     S
V3     V6    9.996   .     S
V3     V4    9.996   .     S
V4     Ti288    10.024   .     S
V4     Ti285    10.024   .     S
V4     V5    9.996   .     S
V4     V6    9.996   .     S
V5     Ti277    10.024   .     S
V5     Ti280    10.024   .     S
V6     Ti276    10.024   .     S
V6     Ti273    10.024   .     S
V7     Ti237    10.024   .     S
V7     Ti240    10.024   .     S
V7     V11    9.996   .     S
V7     V10    9.996   .     S
V7     V8    9.996   .     S
V7     V9    9.996   .     S
V8     Ti232    10.024   .     S
V8     Ti229    10.024   .     S
V8     V12    9.996   .     S
V8     V11    9.996   .     S
V8     V9    9.996   .     S
V9     Ti224    10.024   .     S
V9     Ti221    10.024   .     S
V9     V12    9.996   .     S
V9     V10    9.996   .     S
V10     Ti233    10.024   .     S
V10     Ti236    10.024   .     S
V10     V11    9.996   .     S
V10     V12    9.996   .     S
V11     Ti228    10.024   .     S
V11     Ti225    10.024   .     S
V11     V12    9.996   .     S
V12     Ti217    10.024   .     S
V12     Ti220    10.024   .     S
V13     Ti128    10.024   .     S
V13     Ti125    10.024   .     S
V13     V16    9.996   .     S
V13     V18    9.996   .     S
V13     V15    9.996   .     S
V13     V14    9.996   .     S
V14     Ti137    10.024   .     S
V14     Ti140    10.024   .     S
V14     V16    9.996   .     S
V14     V15    9.996   .     S
V14     V17    9.996   .     S
V15     Ti144    10.024   .     S
V15     Ti141    10.024   .     S
V15     V18    9.996   .     S
V15     V17    9.996   .     S
V16     Ti121    10.024   .     S
V16     Ti124    10.024   .     S
V16     V18    9.996   .     S
V16     V17    9.996   .     S
V17     Ti136    10.024   .     S
V17     Ti133    10.024   .     S
V17     V18    9.996   .     S
V18     Ti129    10.024   .     S
V18     Ti132    10.024   .     S
V19     Ti321    10.024   .     S
V19     Ti324    10.024   .     S
V19     V23    9.996   .     S
V19     V22    9.996   .     S
V19     V20    9.996   .     S
V19     V21    9.996   .     S
V20     Ti316    10.024   .     S
V20     Ti313    10.024   .     S
V20     V24    9.996   .     S
V20     V21    9.996   .     S
V20     V23    9.996   .     S
V21     Ti312    10.024   .     S
V21     Ti309    10.024   .     S
V21     V24    9.996   .     S
V21     V22    9.996   .     S
V22     Ti304    10.024   .     S
V22     Ti301    10.024   .     S
V22     V23    9.996   .     S
V22     V24    9.996   .     S
V23     Ti320    10.024   .     S
V23     Ti317    10.024   .     S
V23     V24    9.996   .     S
V24     Ti305    10.024   .     S
V24     Ti308    10.024   .     S
V25     Ti548    10.024   .     S
V25     Ti545    10.024   .     S
V25     V30    9.996   .     S
V25     V26    9.996   .     S
V25     V27    9.996   .     S
V25     V29    9.996   .     S
V26     Ti532    10.024   .     S
V26     Ti529    10.024   .     S
V26     V30    9.996   .     S
V26     V28    9.996   .     S
V26     V29    9.996   .     S
V27     Ti544    10.024   .     S
V27     Ti541    10.024   .     S
V27     V30    9.996   .     S
V27     V28    9.996   .     S
V27     V29    9.996   .     S
V28     Ti536    10.024   .     S
V28     Ti533    10.024   .     S
V28     V30    9.996   .     S
V28     V29    9.996   .     S
V29     Ti537    10.024   .     S
V29     Ti540    10.024   .     S
V30     Ti552    10.024   .     S
V30     Ti549    10.024   .     S
V31     Ti480    10.024   .     S
V31     Ti477    10.024   .     S
V31     V36    9.996   .     S
V31     V33    9.996   .     S
V31     V32    9.996   .     S
V31     V35    9.996   .     S
V32     Ti484    10.024   .     S
V32     Ti481    10.024   .     S
V32     V36    9.996   .     S
V32     V34    9.996   .     S
V32     V35    9.996   .     S
V33     Ti476    10.024   .     S
V33     Ti473    10.024   .     S
V33     V36    9.996   .     S
V33     V34    9.996   .     S
V33     V35    9.996   .     S
V34     Ti469    10.024   .     S
V34     Ti472    10.024   .     S
V34     V36    9.996   .     S
V34     V35    9.996   .     S
V35     Ti488    10.024   .     S
V35     Ti485    10.024   .     S
V36     Ti489    10.024   .     S
V36     Ti492    10.024   .     S
V37     Ti436    10.024   .     S
V37     Ti433    10.024   .     S
V37     V41    9.996   .     S
V37     V42    9.996   .     S
V37     V39    9.996   .     S
V37     V38    9.996   .     S
V38     Ti441    10.024   .     S
V38     Ti444    10.024   .     S
V38     V42    9.996   .     S
V38     V40    9.996   .     S
V38     V39    9.996   .     S
V39     Ti440    10.024   .     S
V39     Ti437    10.024   .     S
V39     V40    9.996   .     S
V39     V41    9.996   .     S
V40     Ti456    10.024   .     S
V40     Ti453    10.024   .     S
V40     V41    9.996   .     S
V40     V42    9.996   .     S
V41     Ti448    10.024   .     S
V41     Ti445    10.024   .     S
V41     V42    9.996   .     S
V42     Ti449    10.024   .     S
V42     Ti452    10.024   .     S
V43     Ti592    10.024   .     S
V43     Ti589    10.024   .     S
V43     V46    9.996   .     S
V43     V47    9.996   .     S
V43     V44    9.996   .     S
V43     V45    9.996   .     S
V44     Ti608    10.024   .     S
V44     Ti605    10.024   .     S
V44     V48    9.996   .     S
V44     V47    9.996   .     S
V44     V45    9.996   .     S
V45     Ti612    10.024   .     S
V45     Ti609    10.024   .     S
V45     V46    9.996   .     S
V45     V48    9.996   .     S
V46     Ti597    10.024   .     S
V46     Ti600    10.024   .     S
V46     V48    9.996   .     S
V46     V47    9.996   .     S
V47     Ti596    10.024   .     S
V47     Ti593    10.024   .     S
V47     V48    9.996   .     S
V48     Ti604    10.024   .     S
V48     Ti601    10.024   .     S
S49     H499    10.019   .     S
S49     S162    10.131   .     S
S49     H52    9.719   1_554     S
S49     He784    10.218   .     S
S49     S50    9.644   .     S
S49     Ce491    9.934   .     S
S50     H500    10.019   .     S
S50     S161    10.131   .     S
S50     H59    9.719   1_545     S
S50     He784    10.218   .     S
S50     Ce491    9.934   .     S
H51     S493    10.019   .     S
H51     Er696    10.125   1_655     S
H51     S54    9.719   1_655     S
H51     Ce303    9.895   .     S
H51     H52    9.692   .     S
H51     He758    10.183   .     S
H52     S494    10.019   .     S
H52     Er702    10.125   1_556     S
H52     S49    9.719   1_556     S
H52     Ce303    9.895   .     S
H52     He758    10.183   .     S
S53     H496    10.019   .     S
S53     S99    10.131   .     S
S53     H56    9.719   1_545     S
S53     He788    10.218   .     S
S53     S54    9.644   .     S
S53     Ce551    9.934   .     S
S54     H495    10.019   .     S
S54     S100    10.131   .     S
S54     H51    9.719   1_455     S
S54     He788    10.218   .     S
S54     Ce551    9.934   .     S
H55     S501    10.019   .     S
H55     Er698    10.125   1_556     S
H55     S58    9.719   1_556     S
H55     Ce122    9.895   .     S
H55     H56    9.692   .     S
H55     He813    10.183   .     S
H56     S502    10.019   .     S
H56     Er719    10.125   1_565     S
H56     S53    9.719   1_565     S
H56     Ce122    9.895   .     S
H56     He813    10.183   .     S
S57     H503    10.019   .     S
S57     S248    10.131   .     S
S57     H60    9.719   1_455     S
S57     He790    10.218   .     S
S57     S58    9.644   .     S
S57     Ce603    9.934   .     S
S58     H504    10.019   .     S
S58     S247    10.131   .     S
S58     H55    9.719   1_554     S
S58     He790    10.218   .     S
S58     Ce603    9.934   .     S
H59     S497    10.019   .     S
H59     Er678    10.125   1_565     S
H59     S50    9.719   1_565     S
H59     Ce234    9.895   .     S
H59     H60    9.692   .     S
H59     He814    10.183   .     S
H60     S498    10.019   .     S
H60     Er701    10.125   1_655     S
H60     S57    9.719   1_655     S
H60     Ce234    9.895   .     S
H60     He814    10.183   .     S
S61     H354    10.019   .     S
S61     S88    10.131   .     S
S61     H71    9.719   .     S
S61     He811    10.218   .     S
S61     S62    9.644   .     S
S61     Ce451    9.934   .     S
S62     H353    10.019   .     S
S62     S87    10.131   .     S
S62     H63    9.719   .     S
S62     He811    10.218   .     S
S62     Ce451    9.934   .     S
H63     S351    10.019   .     S
H63     Er657    10.125   .     S
H63     Ce319    9.895   .     S
H63     H64    9.692   .     S
H63     He815    10.183   .     S
H64     S352    10.019   .     S
H64     Er667    10.125   1_655     S
H64     S65    9.719   1_655     S
H64     Ce319    9.895   .     S
H64     He815    10.183   .     S
S65     H350    10.019   .     S
S65     S146    10.131   .     S
S65     H64    9.719   1_455     S
S65     He774    10.218   .     S
S65     S66    9.644   .     S
S65     Ce531    9.934   .     S
S66     H349    10.019   .     S
S66     S145    10.131   .     S
S66     H68    9.719   .     S
S66     He774    10.218   .     S
S66     Ce531    9.934   .     S
H67     S355    10.019   .     S
H67     Er712    10.125   .     S
H67     S70    9.719   .     S
H67     Ce283    9.895   .     S
H67     H68    9.692   .     S
H67     He804    10.183   .     S
H68     S356    10.019   .     S
H68     Er703    10.125   .     S
H68     Ce283    9.895   .     S
H68     He804    10.183   .     S
S69     H359    10.019   .     S
S69     S261    10.131   .     S
S69     H72    9.719   1_455     S
S69     He776    10.218   .     S
S69     S70    9.644   .     S
S69     Ce599    9.934   .     S
S70     H360    10.019   .     S
S70     S262    10.131   .     S
S70     He776    10.218   .     S
S70     Ce599    9.934   .     S
H71     S357    10.019   .     S
H71     Er680    10.125   .     S
H71     Ce227    9.895   .     S
H71     H72    9.692   .     S
H71     He770    10.183   .     S
H72     S358    10.019   .     S
H72     Er642    10.125   1_655     S
H72     S69    9.719   1_655     S
H72     Ce227    9.895   .     S
H72     He770    10.183   .     S
S73     H343    10.019   .     S
S73     S111    10.131   .     S
S73     H78    9.719   1_554     S
S73     He738    10.218   .     S
S73     S74    9.644   .     S
S73     Ce594    9.934   .     S
S74     H344    10.019   .     S
S74     S112    10.131   .     S
S74     H80    9.719   .     S
S74     He738    10.218   .     S
S74     Ce594    9.934   .     S
S75     H347    10.019   .     S
S75     S184    10.131   .     S
S75     H83    9.719   .     S
S75     He809    10.218   .     S
S75     S76    9.644   .     S
S75     Ce447    9.934   .     S
S76     H348    10.019   .     S
S76     S183    10.131   .     S
S76     H77    9.719   .     S
S76     He809    10.218   .     S
S76     Ce447    9.934   .     S
H77     S345    10.019   .     S
H77     Er653    10.125   .     S
H77     Ce131    9.895   .     S
H77     H78    9.692   .     S
H77     He779    10.183   .     S
H78     S346    10.019   .     S
H78     Er672    10.125   1_556     S
H78     S73    9.719   1_556     S
H78     Ce131    9.895   .     S
H78     He779    10.183   .     S
H79     S338    10.019   .     S
H79     Er692    10.125   .     S
H79     S82    9.719   .     S
H79     Ce287    9.895   .     S
H79     H80    9.692   .     S
H79     He802    10.183   .     S
H80     S337    10.019   .     S
H80     Er628    10.125   .     S
H80     Ce287    9.895   .     S
H80     He802    10.183   .     S
S81     H339    10.019   .     S
S81     S297    10.131   .     S
S81     H84    9.719   1_554     S
S81     He780    10.218   .     S
S81     S82    9.644   .     S
S81     Ce471    9.934   .     S
S82     H340    10.019   .     S
S82     S298    10.131   .     S
S82     He780    10.218   .     S
S82     Ce471    9.934   .     S
H83     S341    10.019   .     S
H83     Er647    10.125   .     S
H83     Ce306    9.895   .     S
H83     H84    9.692   .     S
H83     He777    10.183   .     S
H84     S342    10.019   .     S
H84     Er656    10.125   1_556     S
H84     S81    9.719   1_556     S
H84     Ce306    9.895   .     S
H84     He777    10.183   .     S
H85     S423    10.019   .     S
H85     Er680    10.125   .     S
H85     S88    9.719   .     S
H85     Ce230    9.895   .     S
H85     H86    9.692   .     S
H85     He723    10.183   .     S
H86     S424    10.019   .     S
H86     Er711    10.125   1_655     S
H86     S92    9.719   1_655     S
H86     Ce230    9.895   .     S
H86     He723    10.183   .     S
S87     H425    10.019   .     S
S87     H89    9.719   .     S
S87     He810    10.218   .     S
S87     S88    9.644   .     S
S87     Ce450    9.934   .     S
S88     H426    10.019   .     S
S88     He810    10.218   .     S
S88     Ce450    9.934   .     S
H89     S421    10.019   .     S
H89     Er657    10.125   .     S
H89     Ce314    9.895   .     S
H89     H90    9.692   .     S
H89     He722    10.183   .     S
H90     S422    10.019   .     S
H90     Er710    10.125   1_655     S
H90     S94    9.719   1_655     S
H90     Ce314    9.895   .     S
H90     He722    10.183   .     S
S91     H427    10.019   .     S
S91     S257    10.131   .     S
S91     H96    9.719   .     S
S91     He789    10.218   .     S
S91     S92    9.644   .     S
S91     Ce543    9.934   .     S
S92     H428    10.019   .     S
S92     S258    10.131   .     S
S92     H86    9.719   1_455     S
S92     He789    10.218   .     S
S92     Ce543    9.934   .     S
S93     H431    10.019   .     S
S93     S151    10.131   .     S
S93     H95    9.719   .     S
S93     He757    10.218   .     S
S93     S94    9.644   .     S
S93     Ce606    9.934   .     S
S94     H432    10.019   .     S
S94     S152    10.131   .     S
S94     H90    9.719   1_455     S
S94     He757    10.218   .     S
S94     Ce606    9.934   .     S
H95     S430    10.019   .     S
H95     Er664    10.125   .     S
H95     Ce123    9.895   .     S
H95     H96    9.692   .     S
H95     He798    10.183   .     S
H96     S429    10.019   .     S
H96     Er641    10.125   .     S
H96     Ce123    9.895   .     S
H96     He798    10.183   .     S
S97     H559    10.019   .     S
S97     S157    10.131   .     S
S97     H108    9.719   .     S
S97     He750    10.218   .     S
S97     S98    9.644   .     S
S97     Ce591    9.934   .     S
S98     H560    10.019   .     S
S98     S158    10.131   .     S
S98     H102    9.719   1_554     S
S98     He750    10.218   .     S
S98     Ce591    9.934   .     S
S99     H558    10.019   .     S
S99     H103    9.719   .     S
S99     He794    10.218   .     S
S99     S100    9.644   .     S
S99     Ce550    9.934   .     S
S100     H557    10.019   .     S
S100     H101    9.719   .     S
S100     He794    10.218   .     S
S100     Ce550    9.934   .     S
H101     S553    10.019   .     S
H101     Er696    10.125   .     S
H101     Ce322    9.895   .     S
H101     H102    9.692   .     S
H101     He755    10.183   .     S
H102     S554    10.019   .     S
H102     Er709    10.125   1_556     S
H102     S98    9.719   1_556     S
H102     Ce322    9.895   .     S
H102     He755    10.183   .     S
H103     S555    10.019   .     S
H103     Er719    10.125   .     S
H103     Ce138    9.895   .     S
H103     H104    9.692   .     S
H103     He747    10.183   .     S
H104     S556    10.019   .     S
H104     Er708    10.125   1_556     S
H104     S105    9.719   1_556     S
H104     Ce138    9.895   .     S
H104     He747    10.183   .     S
S105     H564    10.019   .     S
S105     S244    10.131   .     S
S105     H104    9.719   1_554     S
S105     He742    10.218   .     S
S105     S106    9.644   .     S
S105     Ce487    9.934   .     S
S106     H563    10.019   .     S
S106     S243    10.131   .     S
S106     H107    9.719   .     S
S106     He742    10.218   .     S
S106     Ce487    9.934   .     S
H107     S562    10.019   .     S
H107     Er681    10.125   .     S
H107     Ce286    9.895   .     S
H107     H108    9.692   .     S
H107     He754    10.183   .     S
H108     S561    10.019   .     S
H108     Er716    10.125   .     S
H108     Ce286    9.895   .     S
H108     He754    10.183   .     S
H109     S511    10.019   .     S
H109     Er628    10.125   .     S
H109     S112    9.719   .     S
H109     Ce275    9.895   .     S
H109     H110    9.692   .     S
H109     He731    10.183   .     S
H110     S512    10.019   .     S
H110     Er706    10.125   .     S
H110     S118    9.719   .     S
H110     Ce275    9.895   .     S
H110     He731    10.183   .     S
S111     H516    10.019   .     S
S111     H113    9.719   .     S
S111     He743    10.218   .     S
S111     S112    9.644   .     S
S111     Ce595    9.934   .     S
S112     H515    10.019   .     S
S112     He743    10.218   .     S
S112     Ce595    9.934   .     S
H113     S513    10.019   .     S
H113     Er672    10.125   .     S
H113     Ce127    9.895   .     S
H113     H114    9.692   .     S
H113     He767    10.183   .     S
H114     S514    10.019   .     S
H114     Er715    10.125   .     S
H114     S116    9.719   .     S
H114     Ce127    9.895   .     S
H114     He767    10.183   .     S
S115     H505    10.019   .     S
S115     S189    10.131   .     S
S115     H120    9.719   .     S
S115     He760    10.218   .     S
S115     S116    9.644   .     S
S115     Ce478    9.934   .     S
S116     H506    10.019   .     S
S116     S190    10.131   .     S
S116     He760    10.218   .     S
S116     Ce478    9.934   .     S
S117     H509    10.019   .     S
S117     S291    10.131   .     S
S117     H119    9.719   .     S
S117     He761    10.218   .     S
S117     S118    9.644   .     S
S117     Ce443    9.934   .     S
S118     H510    10.019   .     S
S118     S292    10.131   .     S
S118     He761    10.218   .     S
S118     Ce443    9.934   .     S
H119     S507    10.019   .     S
H119     Er645    10.125   .     S
H119     Ce218    9.895   .     S
H119     H120    9.692   .     S
H119     He781    10.183   .     S
H120     S508    10.019   .     S
H120     Er679    10.125   .     S
H120     Ce218    9.895   .     S
H120     He781    10.183   .     S
Ti121     Er664    10.024   .     S
Ti121     Er641    10.024   .     S
Ti121     Ce123    9.848   .     S
Ti121     Ti129    9.89   .     S
Ti121     Ti133    9.89   .     S
Ce122     Ti124    9.848   .     S
Ce122     Ce123    9.796   .     S
Ce122     S501    9.934   .     S
Ce122     S502    9.934   .     S
Ce123     S429    9.934   .     S
Ce123     S430    9.934   .     S
Ti124     Er698    10.024   1_556     S
Ti124     Er719    10.024   1_565     S
Ti124     Ti137    9.89   .     S
Ti124     Ti128    9.89   .     S
Ti125     Er672    10.024   1_556     S
Ti125     Er715    10.024   1_556     S
Ti125     Ce127    9.848   1_556     S
Ti125     Ti132    9.89   .     S
Ti125     Ti141    9.89   .     S
Ce126     Ti128    9.848   1_554     S
Ce126     H246    9.895   .     S
Ce126     H245    9.895   .     S
Ce126     Ce127    9.796   .     S
Ce126     S521    9.934   .     S
Ce126     S522    9.934   .     S
Ce127     Ti125    9.848   1_554     S
Ce127     S514    9.934   .     S
Ce127     S513    9.934   .     S
Ti128     Er698    10.024   1_556     S
Ti128     Er708    10.024   1_566     S
Ti128     Ce126    9.848   1_556     S
Ti128     Ti137    9.89   .     S
Ti129     Er648    10.024   .     S
Ti129     Er664    10.024   .     S
Ti129     Ce130    9.848   .     S
Ti129     Ti133    9.89   .     S
Ce130     H155    9.895   .     S
Ce130     H156    9.895   .     S
Ce130     Ce131    9.796   .     S
Ce130     S567    9.934   .     S
Ce130     S568    9.934   .     S
Ce131     Ti132    9.848   .     S
Ce131     S345    9.934   .     S
Ce131     S346    9.934   .     S
Ti132     Er672    10.024   1_556     S
Ti132     Er653    10.024   .     S
Ti132     Ti141    9.89   .     S
Ti133     Er648    10.024   .     S
Ti133     Er641    10.024   .     S
Ti133     Ce134    9.848   .     S
Ce134     H256    9.895   .     S
Ce134     H255    9.895   .     S
Ce134     Ce135    9.796   .     S
Ce134     S621    9.934   .     S
Ce134     S622    9.934   .     S
Ce135     Ti136    9.848   .     S
Ce135     H180    9.895   .     S
Ce135     H179    9.895   .     S
Ce135     S362    9.934   .     S
Ce135     S361    9.934   .     S
Ti136     Er639    10.024   1_565     S
Ti136     Er649    10.024   .     S
Ti136     Ti140    9.89   .     S
Ti136     Ti144    9.89   .     S
Ti137     Er708    10.024   1_566     S
Ti137     Er719    10.024   1_565     S
Ti137     Ce138    9.848   1_565     S
Ce138     Ti137    9.848   1_545     S
Ce138     Ce139    9.796   .     S
Ce138     S555    9.934   .     S
Ce138     S556    9.934   .     S
Ce139     Ti140    9.848   1_545     S
Ce139     H203    9.895   .     S
Ce139     H204    9.895   .     S
Ce139     S385    9.934   .     S
Ce139     S386    9.934   .     S
Ti140     Er639    10.024   1_565     S
Ti140     Er713    10.024   1_565     S
Ti140     Ce139    9.848   1_565     S
Ti140     Ti144    9.89   .     S
Ti141     Er715    10.024   1_556     S
Ti141     Er653    10.024   .     S
Ti141     Ce143    9.848   .     S
Ce142     Ti144    9.848   .     S
Ce142     H336    9.895   .     S
Ce142     H335    9.895   .     S
Ce142     Ce143    9.796   .     S
Ce142     S460    9.934   .     S
Ce142     S459    9.934   .     S
Ce143     H185    9.895   .     S
Ce143     H186    9.895   .     S
Ce143     S409    9.934   .     S
Ce143     S410    9.934   .     S
Ti144     Er649    10.024   .     S
Ti144     Er713    10.024   1_565     S
S145     H576    10.019   .     S
S145     H150    9.719   .     S
S145     He782    10.218   .     S
S145     S146    9.644   .     S
S145     Ce530    9.934   .     S
S146     H575    10.019   .     S
S146     H147    9.719   .     S
S146     He782    10.218   .     S
S146     Ce530    9.934   .     S
H147     S573    10.019   .     S
H147     Er667    10.125   .     S
H147     Ce323    9.895   .     S
H147     H148    9.692   .     S
H147     He752    10.183   .     S
H148     S574    10.019   .     S
H148     Er710    10.125   .     S
H148     S152    9.719   .     S
H148     Ce323    9.895   .     S
H148     He752    10.183   .     S
H149     S572    10.019   .     S
H149     Er704    10.125   .     S
H149     S154    9.719   .     S
H149     Ce267    9.895   .     S
H149     H150    9.692   .     S
H149     He728    10.183   .     S
H150     S571    10.019   .     S
H150     Er703    10.125   .     S
H150     Ce267    9.895   .     S
H150     He728    10.183   .     S
S151     H565    10.019   .     S
S151     H156    9.719   .     S
S151     He795    10.218   .     S
S151     S152    9.644   .     S
S151     Ce607    9.934   .     S
S152     H566    10.019   .     S
S152     He795    10.218   .     S
S152     Ce607    9.934   .     S
S153     H569    10.019   .     S
S153     S253    10.131   .     S
S153     H155    9.719   .     S
S153     He765    10.218   .     S
S153     S154    9.644   .     S
S153     Ce439    9.934   .     S
S154     H570    10.019   .     S
S154     S254    10.131   .     S
S154     He765    10.218   .     S
S154     Ce439    9.934   .     S
H155     S567    10.019   .     S
H155     Er648    10.125   .     S
H155     H156    9.692   .     S
H155     He783    10.183   .     S
H156     S568    10.019   .     S
H156     Er664    10.125   .     S
H156     He783    10.183   .     S
S157     H588    10.019   .     S
S157     H167    9.719   .     S
S157     He733    10.218   .     S
S157     S158    9.644   .     S
S157     Ce590    9.934   .     S
S158     H587    10.019   .     S
S158     H160    9.719   1_455     S
S158     He733    10.218   .     S
S158     Ce590    9.934   .     S
H159     S577    10.019   .     S
H159     Er702    10.125   .     S
H159     S162    9.719   .     S
H159     Ce310    9.895   .     S
H159     H160    9.692   .     S
H159     He756    10.183   .     S
H160     S578    10.019   .     S
H160     Er709    10.125   1_655     S
H160     S158    9.719   1_655     S
H160     Ce310    9.895   .     S
H160     He756    10.183   .     S
S161     H579    10.019   .     S
S161     H164    9.719   .     S
S161     He796    10.218   .     S
S161     S162    9.644   .     S
S161     Ce490    9.934   .     S
S162     H580    10.019   .     S
S162     He796    10.218   .     S
S162     Ce490    9.934   .     S
H163     S582    10.019   .     S
H163     Er707    10.125   1_655     S
H163     S166    9.719   1_655     S
H163     Ce222    9.895   .     S
H163     H164    9.692   .     S
H163     He775    10.183   .     S
H164     S581    10.019   .     S
H164     Er678    10.125   .     S
H164     Ce222    9.895   .     S
H164     He775    10.183   .     S
S165     H583    10.019   .     S
S165     S249    10.131   .     S
S165     H168    9.719   .     S
S165     He748    10.218   .     S
S165     S166    9.644   .     S
S165     Ce538    9.934   .     S
S166     H584    10.019   .     S
S166     S250    10.131   .     S
S166     H163    9.719   1_455     S
S166     He748    10.218   .     S
S166     Ce538    9.934   .     S
H167     S586    10.019   .     S
H167     Er716    10.125   .     S
H167     Ce282    9.895   .     S
H167     H168    9.692   .     S
H167     He801    10.183   .     S
H168     S585    10.019   .     S
H168     Er700    10.125   .     S
H168     Ce282    9.895   .     S
H168     He801    10.183   .     S
S169     H366    10.019   .     S
S169     S334    10.131   .     S
S169     H179    9.719   .     S
S169     He808    10.218   .     S
S169     S170    9.644   .     S
S169     Ce455    9.934   .     S
S170     H365    10.019   .     S
S170     S333    10.131   .     S
S170     H171    9.719   .     S
S170     He808    10.218   .     S
S170     Ce455    9.934   .     S
H171     S363    10.019   .     S
H171     Er651    10.125   .     S
H171     Ce219    9.895   .     S
H171     H172    9.692   .     S
H171     He799    10.183   .     S
H172     S364    10.019   .     S
H172     Er662    10.125   1_565     S
H172     S173    9.719   1_565     S
H172     Ce219    9.895   .     S
H172     He799    10.183   .     S
S173     H367    10.019   .     S
S173     S213    10.131   .     S
S173     H172    9.719   1_545     S
S173     He745    10.218   .     S
S173     S174    9.644   .     S
S173     Ce475    9.934   .     S
S174     H368    10.019   .     S
S174     S214    10.131   .     S
S174     H175    9.719   .     S
S174     He745    10.218   .     S
S174     Ce475    9.934   .     S
H175     S370    10.019   .     S
H175     Er685    10.125   .     S
H175     Ce279    9.895   .     S
H175     H176    9.692   .     S
H175     He746    10.183   .     S
H176     S369    10.019   .     S
H176     Er697    10.125   .     S
H176     S178    9.719   .     S
H176     Ce279    9.895   .     S
H176     He746    10.183   .     S
S177     H371    10.019   .     S
S177     S201    10.131   .     S
S177     H180    9.719   1_545     S
S177     He772    10.218   .     S
S177     S178    9.644   .     S
S177     Ce535    9.934   .     S
S178     H372    10.019   .     S
S178     S202    10.131   .     S
S178     He772    10.218   .     S
S178     Ce535    9.934   .     S
H179     S361    10.019   .     S
H179     Er649    10.125   .     S
H179     H180    9.692   .     S
H179     He816    10.183   .     S
H180     S362    10.019   .     S
H180     Er639    10.125   1_565     S
H180     S177    9.719   1_565     S
H180     He816    10.183   .     S
H181     S411    10.019   .     S
H181     Er647    10.125   .     S
H181     S184    9.719   .     S
H181     Ce315    9.895   .     S
H181     H182    9.692   .     S
H181     He735    10.183   .     S
H182     S412    10.019   .     S
H182     Er714    10.125   1_556     S
H182     S188    9.719   1_556     S
H182     Ce315    9.895   .     S
H182     He735    10.183   .     S
S183     H414    10.019   .     S
S183     H185    9.719   .     S
S183     He806    10.218   .     S
S183     S184    9.644   .     S
S183     Ce446    9.934   .     S
S184     H413    10.019   .     S
S184     He806    10.218   .     S
S184     Ce446    9.934   .     S
H185     S409    10.019   .     S
H185     Er653    10.125   .     S
H185     H186    9.692   .     S
H185     He725    10.183   .     S
H186     S410    10.019   .     S
H186     Er715    10.125   1_556     S
H186     S190    9.719   1_556     S
H186     He725    10.183   .     S
S187     H415    10.019   .     S
S187     S289    10.131   .     S
S187     H192    9.719   .     S
S187     He785    10.218   .     S
S187     S188    9.644   .     S
S187     Ce611    9.934   .     S
S188     H416    10.019   .     S
S188     S290    10.131   .     S
S188     H182    9.719   1_554     S
S188     He785    10.218   .     S
S188     Ce611    9.934   .     S
S189     H419    10.019   .     S
S189     H191    9.719   .     S
S189     He803    10.218   .     S
S189     S190    9.644   .     S
S189     Ce479    9.934   .     S
S190     H420    10.019   .     S
S190     H186    9.719   1_554     S
S190     He803    10.218   .     S
S190     Ce479    9.934   .     S
H191     S417    10.019   .     S
H191     Er679    10.125   .     S
H191     Ce235    9.895   .     S
H191     H192    9.692   .     S
H191     He792    10.183   .     S
H192     S418    10.019   .     S
H192     Er670    10.125   .     S
H192     Ce235    9.895   .     S
H192     He792    10.183   .     S
S193     H391    10.019   .     S
S193     S327    10.131   .     S
S193     H198    9.719   .     S
S193     He736    10.218   .     S
S193     S194    9.644   .     S
S193     Ce482    9.934   .     S
S194     H392    10.019   .     S
S194     S328    10.131   .     S
S194     H204    9.719   .     S
S194     He736    10.218   .     S
S194     Ce482    9.934   .     S
S195     H395    10.019   .     S
S195     S207    10.131   .     S
S195     H197    9.719   .     S
S195     He737    10.218   .     S
S195     S196    9.644   .     S
S195     Ce435    9.934   .     S
S196     H396    10.019   .     S
S196     S208    10.131   .     S
S196     H199    9.719   .     S
S196     He737    10.218   .     S
S196     Ce435    9.934   .     S
H197     S393    10.019   .     S
H197     Er655    10.125   .     S
H197     Ce307    9.895   .     S
H197     H198    9.692   .     S
H197     He778    10.183   .     S
H198     S394    10.019   .     S
H198     Er631    10.125   .     S
H198     Ce307    9.895   .     S
H198     He778    10.183   .     S
H199     S390    10.019   .     S
H199     Er705    10.125   .     S
H199     Ce266    9.895   .     S
H199     H200    9.692   .     S
H199     He734    10.183   .     S
H200     S389    10.019   .     S
H200     Er697    10.125   .     S
H200     S202    9.719   .     S
H200     Ce266    9.895   .     S
H200     He734    10.183   .     S
S201     H387    10.019   .     S
S201     H203    9.719   .     S
S201     He762    10.218   .     S
S201     S202    9.644   .     S
S201     Ce534    9.934   .     S
S202     H388    10.019   .     S
S202     He762    10.218   .     S
S202     Ce534    9.934   .     S
H203     S385    10.019   .     S
H203     Er639    10.125   .     S
H203     H204    9.692   .     S
H203     He769    10.183   .     S
H204     S386    10.019   .     S
H204     Er713    10.125   .     S
H204     He769    10.183   .     S
S205     H403    10.019   .     S
S205     S325    10.131   .     S
S205     H210    9.719   .     S
S205     He797    10.218   .     S
S205     S206    9.644   .     S
S205     Ce546    9.934   .     S
S206     H404    10.019   .     S
S206     S326    10.131   .     S
S206     H215    9.719   .     S
S206     He797    10.218   .     S
S206     Ce546    9.934   .     S
S207     H407    10.019   .     S
S207     H209    9.719   .     S
S207     He766    10.218   .     S
S207     S208    9.644   .     S
S207     Ce434    9.934   .     S
S208     H408    10.019   .     S
S208     H212    9.719   .     S
S208     He766    10.218   .     S
S208     Ce434    9.934   .     S
H209     S405    10.019   .     S
H209     Er655    10.125   .     S
H209     Ce318    9.895   .     S
H209     H210    9.692   .     S
H209     He786    10.183   .     S
H210     S406    10.019   .     S
H210     Er636    10.125   .     S
H210     Ce318    9.895   .     S
H210     He786    10.183   .     S
H211     S397    10.019   .     S
H211     Er685    10.125   .     S
H211     S214    9.719   .     S
H211     Ce270    9.895   .     S
H211     H212    9.692   .     S
H211     He726    10.183   .     S
H212     S398    10.019   .     S
H212     Er705    10.125   .     S
H212     Ce270    9.895   .     S
H212     He726    10.183   .     S
S213     H401    10.019   .     S
S213     H216    9.719   .     S
S213     He741    10.218   .     S
S213     S214    9.644   .     S
S213     Ce474    9.934   .     S
S214     H402    10.019   .     S
S214     He741    10.218   .     S
S214     Ce474    9.934   .     S
H215     S400    10.019   .     S
H215     Er720    10.125   .     S
H215     Ce223    9.895   .     S
H215     H216    9.692   .     S
H215     He753    10.183   .     S
H216     S399    10.019   .     S
H216     Er662    10.125   .     S
H216     Ce223    9.895   .     S
H216     He753    10.183   .     S
Ti217     Er645    10.024   .     S
Ti217     Er679    10.024   .     S
Ti217     Ce218    9.848   .     S
Ti217     Ti225    9.89   .     S
Ti217     Ti233    9.89   .     S
Ce218     Ce219    9.796   .     S
Ce218     S508    9.934   .     S
Ce218     S507    9.934   .     S
Ce219     Ti220    9.848   .     S
Ce219     S363    9.934   .     S
Ce219     S364    9.934   .     S
Ti220     Er662    10.024   1_565     S
Ti220     Er651    10.024   .     S
Ti220     Ti229    9.89   .     S
Ti220     Ti221    9.89   .     S
Ti221     Er662    10.024   1_565     S
Ti221     Er720    10.024   1_565     S
Ti221     Ce223    9.848   1_565     S
Ti221     Ti229    9.89   .     S
Ce222     Ti224    9.848   1_545     S
Ce222     Ce223    9.796   .     S
Ce222     S581    9.934   .     S
Ce222     S582    9.934   .     S
Ce223     Ti221    9.848   1_545     S
Ce223     S399    9.934   .     S
Ce223     S400    9.934   .     S
Ti224     Er707    10.024   1_665     S
Ti224     Er678    10.024   1_565     S
Ti224     Ce222    9.848   1_565     S
Ti224     Ti240    9.89   .     S
Ti224     Ti236    9.89   .     S
Ti225     Er645    10.024   .     S
Ti225     Er670    10.024   .     S
Ti225     Ce226    9.848   .     S
Ti225     Ti233    9.89   .     S
Ce226     H293    9.895   .     S
Ce226     H294    9.895   .     S
Ce226     Ce227    9.796   .     S
Ce226     S375    9.934   .     S
Ce226     S376    9.934   .     S
Ce227     Ti228    9.848   .     S
Ce227     S358    9.934   .     S
Ce227     S357    9.934   .     S
Ti228     Er642    10.024   1_655     S
Ti228     Er680    10.024   .     S
Ti228     Ti237    9.89   .     S
Ti228     Ti232    9.89   .     S
Ti229     Er651    10.024   .     S
Ti229     Er720    10.024   1_565     S
Ti229     Ce231    9.848   .     S
Ce230     Ti232    9.848   .     S
Ce230     Ce231    9.796   .     S
Ce230     S424    9.934   .     S
Ce230     S423    9.934   .     S
Ce231     H332    9.895   .     S
Ce231     H331    9.895   .     S
Ce231     S458    9.934   .     S
Ce231     S457    9.934   .     S
Ti232     Er680    10.024   .     S
Ti232     Er711    10.024   1_655     S
Ti232     Ti237    9.89   .     S
Ti233     Er679    10.024   .     S
Ti233     Er670    10.024   .     S
Ti233     Ce235    9.848   .     S
Ce234     Ti236    9.848   .     S
Ce234     Ce235    9.796   .     S
Ce234     S497    9.934   .     S
Ce234     S498    9.934   .     S
Ce235     S418    9.934   .     S
Ce235     S417    9.934   .     S
Ti236     Er701    10.024   1_655     S
Ti236     Er678    10.024   1_565     S
Ti236     Ti240    9.89   .     S
Ti237     Er642    10.024   1_655     S
Ti237     Er711    10.024   1_655     S
Ti237     Ce239    9.848   1_655     S
Ce238     Ti240    9.848   1_455     S
Ce238     H251    9.895   .     S
Ce238     H252    9.895   .     S
Ce238     Ce239    9.796   .     S
Ce238     S517    9.934   .     S
Ce238     S518    9.934   .     S
Ce239     Ti237    9.848   1_455     S
Ce239     H263    9.895   .     S
Ce239     H264    9.895   .     S
Ce239     S615    9.934   .     S
Ce239     S616    9.934   .     S
Ti240     Er707    10.024   1_665     S
Ti240     Er701    10.024   1_655     S
Ti240     Ce238    9.848   1_655     S
H241     S526    10.019   .     S
H241     Er681    10.125   .     S
H241     S243    9.719   .     S
H241     Ce278    9.895   .     S
H241     H242    9.692   .     S
H241     He739    10.183   .     S
H242     S525    10.019   .     S
H242     Er700    10.125   .     S
H242     S249    9.719   .     S
H242     Ce278    9.895   .     S
H242     He739    10.183   .     S
S243     H527    10.019   .     S
S243     He749    10.218   .     S
S243     S244    9.644   .     S
S243     Ce486    9.934   .     S
S244     H528    10.019   .     S
S244     H245    9.719   1_545     S
S244     He749    10.218   .     S
S244     Ce486    9.934   .     S
H245     S522    10.019   .     S
H245     Er708    10.125   1_565     S
H245     S244    9.719   1_565     S
H245     H246    9.692   .     S
H245     He773    10.183   .     S
H246     S521    10.019   .     S
H246     Er698    10.125   .     S
H246     S247    9.719   .     S
H246     He773    10.183   .     S
S247     H520    10.019   .     S
S247     He800    10.218   .     S
S247     S248    9.644   .     S
S247     Ce602    9.934   .     S
S248     H519    10.019   .     S
S248     H251    9.719   .     S
S248     He800    10.218   .     S
S248     Ce602    9.934   .     S
S249     H524    10.019   .     S
S249     He732    10.218   .     S
S249     S250    9.644   .     S
S249     Ce539    9.934   .     S
S250     H523    10.019   .     S
S250     H252    9.719   1_545     S
S250     He732    10.218   .     S
S250     Ce539    9.934   .     S
H251     S517    10.019   .     S
H251     Er701    10.125   .     S
H251     H252    9.692   .     S
H251     He744    10.183   .     S
H252     S518    10.019   .     S
H252     Er707    10.125   1_565     S
H252     S250    9.719   1_565     S
H252     He744    10.183   .     S
S253     H623    10.019   .     S
S253     H255    9.719   .     S
S253     He759    10.218   .     S
S253     S254    9.644   .     S
S253     Ce438    9.934   .     S
S254     H624    10.019   .     S
S254     H259    9.719   .     S
S254     He759    10.218   .     S
S254     Ce438    9.934   .     S
H255     S622    10.019   .     S
H255     Er648    10.125   .     S
H255     H256    9.692   .     S
H255     He791    10.183   .     S
H256     S621    10.019   .     S
H256     Er641    10.125   .     S
H256     S257    9.719   .     S
H256     He791    10.183   .     S
S257     H613    10.019   .     S
S257     He793    10.218   .     S
S257     S258    9.644   .     S
S257     Ce542    9.934   .     S
S258     H614    10.019   .     S
S258     H264    9.719   .     S
S258     He793    10.218   .     S
S258     Ce542    9.934   .     S
H259     S620    10.019   .     S
H259     Er704    10.125   .     S
H259     Ce274    9.895   .     S
H259     H260    9.692   .     S
H259     He730    10.183   .     S
H260     S619    10.019   .     S
H260     Er712    10.125   .     S
H260     S262    9.719   .     S
H260     Ce274    9.895   .     S
H260     He730    10.183   .     S
S261     H617    10.019   .     S
S261     H263    9.719   .     S
S261     He751    10.218   .     S
S261     S262    9.644   .     S
S261     Ce598    9.934   .     S
S262     H618    10.019   .     S
S262     He751    10.218   .     S
S262     Ce598    9.934   .     S
H263     S615    10.019   .     S
H263     Er642    10.125   .     S
H263     H264    9.692   .     S
H263     He768    10.183   .     S
H264     S616    10.019   .     S
H264     Er711    10.125   .     S
H264     He768    10.183   .     S
Ti265     Er704    10.024   .     S
Ti265     Er703    10.024   .     S
Ti265     Ce267    9.848   .     S
Ti265     Ti284    9.89   .     S
Ti265     Ti276    9.89   .     S
Ce266     Ti268    9.848   .     S
Ce266     Ce267    9.796   .     S
Ce266     S389    9.934   .     S
Ce266     S390    9.934   .     S
Ce267     S571    9.934   .     S
Ce267     S572    9.934   .     S
Ti268     Er705    10.024   .     S
Ti268     Er697    10.024   .     S
Ti268     Ti280    9.89   .     S
Ti268     Ti272    9.89   .     S
Ti269     Er706    10.024   .     S
Ti269     Er692    10.024   .     S
Ti269     Ce271    9.848   .     S
Ti269     Ti285    9.89   .     S
Ti269     Ti273    9.89   .     S
Ce270     Ti272    9.848   .     S
Ce270     Ce271    9.796   .     S
Ce270     S398    9.934   .     S
Ce270     S397    9.934   .     S
Ce271     H295    9.895   .     S
Ce271     H296    9.895   .     S
Ce271     S380    9.934   .     S
Ce271     S379    9.934   .     S
Ti272     Er685    10.024   .     S
Ti272     Er705    10.024   .     S
Ti272     Ti280    9.89   .     S
Ti273     Er706    10.024   .     S
Ti273     Er628    10.024   .     S
Ti273     Ce275    9.848   .     S
Ti273     Ti285    9.89   .     S
Ce274     Ti276    9.848   .     S
Ce274     Ce275    9.796   .     S
Ce274     S619    9.934   .     S
Ce274     S620    9.934   .     S
Ce275     S512    9.934   .     S
Ce275     S511    9.934   .     S
Ti276     Er704    10.024   .     S
Ti276     Er712    10.024   .     S
Ti276     Ti284    9.89   .     S
Ti277     Er681    10.024   .     S
Ti277     Er700    10.024   .     S
Ti277     Ce278    9.848   .     S
Ti277     Ti281    9.89   .     S
Ti277     Ti288    9.89   .     S
Ce278     Ce279    9.796   .     S
Ce278     S526    9.934   .     S
Ce278     S525    9.934   .     S
Ce279     Ti280    9.848   .     S
Ce279     S369    9.934   .     S
Ce279     S370    9.934   .     S
Ti280     Er685    10.024   .     S
Ti280     Er697    10.024   .     S
Ti281     Er700    10.024   .     S
Ti281     Er716    10.024   .     S
Ti281     Ce282    9.848   .     S
Ti281     Ti288    9.89   .     S
Ce282     Ce283    9.796   .     S
Ce282     S586    9.934   .     S
Ce282     S585    9.934   .     S
Ce283     Ti284    9.848   .     S
Ce283     S356    9.934   .     S
Ce283     S355    9.934   .     S
Ti284     Er703    10.024   .     S
Ti284     Er712    10.024   .     S
Ti285     Er692    10.024   .     S
Ti285     Er628    10.024   .     S
Ti285     Ce287    9.848   .     S
Ce286     Ti288    9.848   .     S
Ce286     Ce287    9.796   .     S
Ce286     S561    9.934   .     S
Ce286     S562    9.934   .     S
Ce287     S337    9.934   .     S
Ce287     S338    9.934   .     S
Ti288     Er681    10.024   .     S
Ti288     Er716    10.024   .     S
S289     H374    10.019   .     S
S289     H294    9.719   .     S
S289     He727    10.218   .     S
S289     S290    9.644   .     S
S289     Ce610    9.934   .     S
S290     H373    10.019   .     S
S290     H300    9.719   .     S
S290     He727    10.218   .     S
S290     Ce610    9.934   .     S
S291     H377    10.019   .     S
S291     H293    9.719   .     S
S291     He805    10.218   .     S
S291     S292    9.644   .     S
S291     Ce442    9.934   .     S
S292     H378    10.019   .     S
S292     H295    9.719   .     S
S292     He805    10.218   .     S
S292     Ce442    9.934   .     S
H293     S375    10.019   .     S
H293     Er645    10.125   .     S
H293     H294    9.692   .     S
H293     He771    10.183   .     S
H294     S376    10.019   .     S
H294     Er670    10.125   .     S
H294     He771    10.183   .     S
H295     S380    10.019   .     S
H295     Er706    10.125   .     S
H295     H296    9.692   .     S
H295     He729    10.183   .     S
H296     S379    10.019   .     S
H296     Er692    10.125   .     S
H296     S298    9.719   .     S
H296     He729    10.183   .     S
S297     H383    10.019   .     S
S297     H299    9.719   .     S
S297     He763    10.218   .     S
S297     S298    9.644   .     S
S297     Ce470    9.934   .     S
S298     H384    10.019   .     S
S298     He763    10.218   .     S
S298     Ce470    9.934   .     S
H299     S381    10.019   .     S
H299     Er656    10.125   .     S
H299     Ce311    9.895   .     S
H299     H300    9.692   .     S
H299     He764    10.183   .     S
H300     S382    10.019   .     S
H300     Er714    10.125   .     S
H300     Ce311    9.895   .     S
H300     He764    10.183   .     S
Ti301     Er636    10.024   .     S
Ti301     Er631    10.024   .     S
Ti301     Ce302    9.848   .     S
Ti301     Ti305    9.89   .     S
Ti301     Ti320    9.89   .     S
Ce302     H329    9.895   .     S
Ce302     H330    9.895   .     S
Ce302     Ce303    9.796   .     S
Ce302     S465    9.934   .     S
Ce302     S466    9.934   .     S
Ce303     Ti304    9.848   .     S
Ce303     S494    9.934   .     S
Ce303     S493    9.934   .     S
Ti304     Er702    10.024   1_556     S
Ti304     Er696    10.024   1_655     S
Ti304     Ti312    9.89   .     S
Ti304     Ti321    9.89   .     S
Ti305     Er655    10.024   .     S
Ti305     Er631    10.024   .     S
Ti305     Ce307    9.848   .     S
Ti305     Ti320    9.89   .     S
Ce306     Ti308    9.848   .     S
Ce306     Ce307    9.796   .     S
Ce306     S342    9.934   .     S
Ce306     S341    9.934   .     S
Ce307     S393    9.934   .     S
Ce307     S394    9.934   .     S
Ti308     Er656    10.024   1_556     S
Ti308     Er647    10.024   .     S
Ti308     Ti309    9.89   .     S
Ti308     Ti313    9.89   .     S
Ti309     Er656    10.024   1_556     S
Ti309     Er714    10.024   1_556     S
Ti309     Ce311    9.848   1_556     S
Ti309     Ti313    9.89   .     S
Ce310     Ti312    9.848   1_554     S
Ce310     Ce311    9.796   .     S
Ce310     S577    9.934   .     S
Ce310     S578    9.934   .     S
Ce311     Ti309    9.848   1_554     S
Ce311     S382    9.934   .     S
Ce311     S381    9.934   .     S
Ti312     Er702    10.024   1_556     S
Ti312     Er709    10.024   1_656     S
Ti312     Ce310    9.848   1_556     S
Ti312     Ti321    9.89   .     S
Ti313     Er714    10.024   1_556     S
Ti313     Er647    10.024   .     S
Ti313     Ce315    9.848   .     S
Ce314     Ti316    9.848   .     S
Ce314     Ce315    9.796   .     S
Ce314     S422    9.934   .     S
Ce314     S421    9.934   .     S
Ce315     S411    9.934   .     S
Ce315     S412    9.934   .     S
Ti316     Er710    10.024   1_655     S
Ti316     Er657    10.024   .     S
Ti316     Ti324    9.89   .     S
Ti316     Ti317    9.89   .     S
Ti317     Er667    10.024   1_655     S
Ti317     Er657    10.024   .     S
Ti317     Ce319    9.848   .     S
Ti317     Ti324    9.89   .     S
Ce318     Ti320    9.848   .     S
Ce318     Ce319    9.796   .     S
Ce318     S406    9.934   .     S
Ce318     S405    9.934   .     S
Ce319     S351    9.934   .     S
Ce319     S352    9.934   .     S
Ti320     Er655    10.024   .     S
Ti320     Er636    10.024   .     S
Ti321     Er696    10.024   1_655     S
Ti321     Er709    10.024   1_656     S
Ti321     Ce322    9.848   1_655     S
Ce322     Ti321    9.848   1_455     S
Ce322     Ce323    9.796   .     S
Ce322     S554    9.934   .     S
Ce322     S553    9.934   .     S
Ce323     Ti324    9.848   1_455     S
Ce323     S573    9.934   .     S
Ce323     S574    9.934   .     S
Ti324     Er710    10.024   1_655     S
Ti324     Er667    10.024   1_655     S
Ti324     Ce323    9.848   1_655     S
S325     H463    10.019   .     S
S325     H330    9.719   .     S
S325     He740    10.218   .     S
S325     S326    9.644   .     S
S325     Ce547    9.934   .     S
S326     H464    10.019   .     S
S326     H332    9.719   1_545     S
S326     He740    10.218   .     S
S326     Ce547    9.934   .     S
S327     H467    10.019   .     S
S327     H329    9.719   .     S
S327     He787    10.218   .     S
S327     S328    9.644   .     S
S327     Ce483    9.934   .     S
S328     H468    10.019   .     S
S328     H336    9.719   1_545     S
S328     He787    10.218   .     S
S328     Ce483    9.934   .     S
H329     S465    10.019   .     S
H329     Er631    10.125   .     S
H329     H330    9.692   .     S
H329     He812    10.183   .     S
H330     S466    10.019   .     S
H330     Er636    10.125   .     S
H330     He812    10.183   .     S
H331     S457    10.019   .     S
H331     Er651    10.125   .     S
H331     S333    9.719   .     S
H331     H332    9.692   .     S
H331     He721    10.183   .     S
H332     S458    10.019   .     S
H332     Er720    10.125   1_565     S
H332     S326    9.719   1_565     S
H332     He721    10.183   .     S
S333     H461    10.019   .     S
S333     He807    10.218   .     S
S333     S334    9.644   .     S
S333     Ce454    9.934   .     S
S334     H462    10.019   .     S
S334     H335    9.719   .     S
S334     He807    10.218   .     S
S334     Ce454    9.934   .     S
H335     S459    10.019   .     S
H335     Er649    10.125   .     S
H335     H336    9.692   .     S
H335     He724    10.183   .     S
H336     S460    10.019   .     S
H336     Er713    10.125   1_565     S
H336     S328    9.719   1_565     S
H336     He724    10.183   .     S
S337     S561    10.131   .     S
S337     H344    9.719   .     S
S337     He802    10.218   .     S
S337     S338    9.644   .     S
S338     S562    10.131   .     S
S338     H340    9.719   .     S
S338     He802    10.218   .     S
H339     Er673    10.125   1_554     S
H339     S342    9.719   1_554     S
H339     Ce471    9.895   .     S
H339     H340    9.692   .     S
H339     He780    10.183   .     S
H340     Er675    10.125   .     S
H340     Ce471    9.895   .     S
H340     He780    10.183   .     S
S341     S393    10.131   .     S
S341     H347    9.719   .     S
S341     He777    10.218   .     S
S341     S342    9.644   .     S
S342     S394    10.131   .     S
S342     H339    9.719   1_556     S
S342     He777    10.218   .     S
H343     Er677    10.125   1_554     S
H343     S346    9.719   1_554     S
H343     Ce594    9.895   .     S
H343     H344    9.692   .     S
H343     He738    10.183   .     S
H344     Er629    10.125   .     S
H344     Ce594    9.895   .     S
H344     He738    10.183   .     S
S345     S567    10.131   .     S
S345     H348    9.719   .     S
S345     He779    10.218   .     S
S345     S346    9.644   .     S
S346     S568    10.131   .     S
S346     H343    9.719   1_556     S
S346     He779    10.218   .     S
H347     Er650    10.125   .     S
H347     Ce447    9.895   .     S
H347     H348    9.692   .     S
H347     He809    10.183   .     S
H348     Er669    10.125   .     S
H348     Ce447    9.895   .     S
H348     He809    10.183   .     S
H349     Er637    10.125   .     S
H349     S356    9.719   .     S
H349     Ce531    9.895   .     S
H349     H350    9.692   .     S
H349     He774    10.183   .     S
H350     Er683    10.125   1_455     S
H350     S352    9.719   1_455     S
H350     Ce531    9.895   .     S
H350     He774    10.183   .     S
S351     S405    10.131   .     S
S351     H353    9.719   .     S
S351     He815    10.218   .     S
S351     S352    9.644   .     S
S352     S406    10.131   .     S
S352     H350    9.719   1_655     S
S352     He815    10.218   .     S
H353     Er646    10.125   .     S
H353     Ce451    9.895   .     S
H353     H354    9.692   .     S
H353     He811    10.183   .     S
H354     Er638    10.125   .     S
H354     S357    9.719   .     S
H354     Ce451    9.895   .     S
H354     He811    10.183   .     S
S355     S586    10.131   .     S
S355     H360    9.719   .     S
S355     He804    10.218   .     S
S355     S356    9.644   .     S
S356     S585    10.131   .     S
S356     He804    10.218   .     S
S357     S375    10.131   .     S
S357     He770    10.218   .     S
S357     S358    9.644   .     S
S358     S376    10.131   .     S
S358     H359    9.719   1_655     S
S358     He770    10.218   .     S
H359     Er684    10.125   1_455     S
H359     S358    9.719   1_455     S
H359     Ce599    9.895   .     S
H359     H360    9.692   .     S
H359     He776    10.183   .     S
H360     Er691    10.125   .     S
H360     Ce599    9.895   .     S
H360     He776    10.183   .     S
S361     S622    10.131   .     S
S361     H366    9.719   .     S
S361     He816    10.218   .     S
S361     S362    9.644   .     S
S362     S621    10.131   .     S
S362     H371    9.719   1_565     S
S362     He816    10.218   .     S
S363     S507    10.131   .     S
S363     H365    9.719   .     S
S363     He799    10.218   .     S
S363     S364    9.644   .     S
S364     S508    10.131   .     S
S364     H367    9.719   1_565     S
S364     He799    10.218   .     S
H365     Er640    10.125   .     S
H365     Ce455    9.895   .     S
H365     H366    9.692   .     S
H365     He808    10.183   .     S
H366     Er654    10.125   .     S
H366     Ce455    9.895   .     S
H366     He808    10.183   .     S
H367     Er699    10.125   1_545     S
H367     S364    9.719   1_545     S
H367     Ce475    9.895   .     S
H367     H368    9.692   .     S
H367     He745    10.183   .     S
H368     Er682    10.125   .     S
H368     S370    9.719   .     S
H368     Ce475    9.895   .     S
H368     He745    10.183   .     S
S369     S525    10.131   .     S
S369     H372    9.719   .     S
S369     He746    10.218   .     S
S369     S370    9.644   .     S
S370     S526    10.131   .     S
S370     He746    10.218   .     S
H371     Er665    10.125   1_545     S
H371     S362    9.719   1_545     S
H371     Ce535    9.895   .     S
H371     H372    9.692   .     S
H371     He772    10.183   .     S
H372     Er661    10.125   .     S
H372     Ce535    9.895   .     S
H372     He772    10.183   .     S
H373     Er686    10.125   .     S
H373     S382    9.719   .     S
H373     Ce610    9.895   .     S
H373     H374    9.692   .     S
H373     He727    10.183   .     S
H374     Er684    10.125   .     S
H374     S376    9.719   .     S
H374     Ce610    9.895   .     S
H374     He727    10.183   .     S
S375     H377    9.719   .     S
S375     He771    10.218   .     S
S375     S376    9.644   .     S
S376     He771    10.218   .     S
H377     Er638    10.125   .     S
H377     Ce442    9.895   .     S
H377     H378    9.692   .     S
H377     He805    10.183   .     S
H378     Er693    10.125   .     S
H378     S380    9.719   .     S
H378     Ce442    9.895   .     S
H378     He805    10.183   .     S
S379     S397    10.131   .     S
S379     H384    9.719   .     S
S379     He729    10.218   .     S
S379     S380    9.644   .     S
S380     S398    10.131   .     S
S380     He729    10.218   .     S
S381     S577    10.131   .     S
S381     H383    9.719   .     S
S381     He764    10.218   .     S
S381     S382    9.644   .     S
S382     S578    10.131   .     S
S382     He764    10.218   .     S
H383     Er625    10.125   .     S
H383     Ce470    9.895   .     S
H383     H384    9.692   .     S
H383     He763    10.183   .     S
H384     Er674    10.125   .     S
H384     Ce470    9.895   .     S
H384     He763    10.183   .     S
S385     S555    10.131   .     S
S385     H387    9.719   .     S
S385     He769    10.218   .     S
S385     S386    9.644   .     S
S386     S556    10.131   .     S
S386     H392    9.719   .     S
S386     He769    10.218   .     S
H387     Er630    10.125   .     S
H387     Ce534    9.895   .     S
H387     H388    9.692   .     S
H387     He762    10.183   .     S
H388     Er635    10.125   .     S
H388     S389    9.719   .     S
H388     Ce534    9.895   .     S
H388     He762    10.183   .     S
S389     S571    10.131   .     S
S389     He734    10.218   .     S
S389     S390    9.644   .     S
S390     S572    10.131   .     S
S390     H396    9.719   .     S
S390     He734    10.218   .     S
H391     Er673    10.125   .     S
H391     S394    9.719   .     S
H391     Ce482    9.895   .     S
H391     H392    9.692   .     S
H391     He736    10.183   .     S
H392     Er690    10.125   .     S
H392     Ce482    9.895   .     S
H392     He736    10.183   .     S
S393     H395    9.719   .     S
S393     He778    10.218   .     S
S393     S394    9.644   .     S
S394     He778    10.218   .     S
H395     Er650    10.125   .     S
H395     Ce435    9.895   .     S
H395     H396    9.692   .     S
H395     He737    10.183   .     S
H396     Er695    10.125   .     S
H396     Ce435    9.895   .     S
H396     He737    10.183   .     S
S397     H402    9.719   .     S
S397     He726    10.218   .     S
S397     S398    9.644   .     S
S398     H408    9.719   .     S
S398     He726    10.218   .     S
S399     S581    10.131   .     S
S399     H401    9.719   .     S
S399     He753    10.218   .     S
S399     S400    9.644   .     S
S400     S582    10.131   .     S
S400     H404    9.719   .     S
S400     He753    10.218   .     S
H401     Er644    10.125   .     S
H401     Ce474    9.895   .     S
H401     H402    9.692   .     S
H401     He741    10.183   .     S
H402     Er674    10.125   .     S
H402     Ce474    9.895   .     S
H402     He741    10.183   .     S
H403     Er683    10.125   .     S
H403     S406    9.719   .     S
H403     Ce546    9.895   .     S
H403     H404    9.692   .     S
H403     He797    10.183   .     S
H404     Er687    10.125   .     S
H404     Ce546    9.895   .     S
H404     He797    10.183   .     S
S405     H407    9.719   .     S
S405     He786    10.218   .     S
S405     S406    9.644   .     S
S406     He786    10.218   .     S
H407     Er646    10.125   .     S
H407     Ce434    9.895   .     S
H407     H408    9.692   .     S
H407     He766    10.183   .     S
H408     Er693    10.125   .     S
H408     Ce434    9.895   .     S
H408     He766    10.183   .     S
S409     S459    10.131   .     S
S409     H414    9.719   .     S
S409     He725    10.218   .     S
S409     S410    9.644   .     S
S410     S460    10.131   .     S
S410     H420    9.719   1_556     S
S410     He725    10.218   .     S
S411     S421    10.131   .     S
S411     H413    9.719   .     S
S411     He735    10.218   .     S
S411     S412    9.644   .     S
S412     S422    10.131   .     S
S412     H416    9.719   1_556     S
S412     He735    10.218   .     S
H413     Er663    10.125   .     S
H413     Ce446    9.895   .     S
H413     H414    9.692   .     S
H413     He806    10.183   .     S
H414     Er668    10.125   .     S
H414     Ce446    9.895   .     S
H414     He806    10.183   .     S
H415     Er632    10.125   .     S
H415     S418    9.719   .     S
H415     Ce611    9.895   .     S
H415     H416    9.692   .     S
H415     He785    10.183   .     S
H416     Er718    10.125   1_554     S
H416     S412    9.719   1_554     S
H416     Ce611    9.895   .     S
H416     He785    10.183   .     S
S417     S497    10.131   .     S
S417     H419    9.719   .     S
S417     He792    10.218   .     S
S417     S418    9.644   .     S
S418     S498    10.131   .     S
S418     He792    10.218   .     S
H419     Er658    10.125   .     S
H419     Ce479    9.895   .     S
H419     H420    9.692   .     S
H419     He803    10.183   .     S
H420     Er666    10.125   1_554     S
H420     S410    9.719   1_554     S
H420     Ce479    9.895   .     S
H420     He803    10.183   .     S
S421     H425    9.719   .     S
S421     He722    10.218   .     S
S421     S422    9.644   .     S
S422     H432    9.719   1_655     S
S422     He722    10.218   .     S
S423     S457    10.131   .     S
S423     H426    9.719   .     S
S423     He723    10.218   .     S
S423     S424    9.644   .     S
S424     S458    10.131   .     S
S424     H428    9.719   1_655     S
S424     He723    10.218   .     S
H425     Er663    10.125   .     S
H425     Ce450    9.895   .     S
H425     H426    9.692   .     S
H425     He810    10.183   .     S
H426     Er671    10.125   .     S
H426     Ce450    9.895   .     S
H426     He810    10.183   .     S
H427     Er652    10.125   .     S
H427     S429    9.719   .     S
H427     Ce543    9.895   .     S
H427     H428    9.692   .     S
H427     He789    10.183   .     S
H428     Er717    10.125   1_455     S
H428     S424    9.719   1_455     S
H428     Ce543    9.895   .     S
H428     He789    10.183   .     S
S429     S502    10.131   .     S
S429     He798    10.218   .     S
S429     S430    9.644   .     S
S430     S501    10.131   .     S
S430     H431    9.719   .     S
S430     He798    10.218   .     S
H431     Er660    10.125   .     S
H431     Ce606    9.895   .     S
H431     H432    9.692   .     S
H431     He757    10.183   .     S
H432     Er718    10.125   1_455     S
H432     S422    9.719   1_455     S
H432     Ce606    9.895   .     S
H432     He757    10.183   .     S
Ti433     Er650    10.024   .     S
Ti433     Er695    10.024   .     S
Ti433     Ce435    9.848   .     S
Ti433     Ti445    9.89   .     S
Ti433     Ti437    9.89   .     S
Ce434     Ti436    9.848   .     S
Ce434     Ce435    9.796   .     S
Ti436     Er646    10.024   .     S
Ti436     Er693    10.024   .     S
Ti436     Ti449    9.89   .     S
Ti436     Ti441    9.89   .     S
Ti437     Er669    10.024   .     S
Ti437     Er695    10.024   .     S
Ti437     Ce439    9.848   .     S
Ti437     Ti445    9.89   .     S
Ce438     Ti440    9.848   .     S
Ce438     H624    9.895   .     S
Ce438     H623    9.895   .     S
Ce438     Ce439    9.796   .     S
Ce439     H570    9.895   .     S
Ce439     H569    9.895   .     S
Ti440     Er654    10.024   .     S
Ti440     Er694    10.024   .     S
Ti440     Ti453    9.89   .     S
Ti440     Ti444    9.89   .     S
Ti441     Er638    10.024   .     S
Ti441     Er693    10.024   .     S
Ti441     Ce442    9.848   .     S
Ti441     Ti449    9.89   .     S
Ce442     Ce443    9.796   .     S
Ce443     Ti444    9.848   .     S
Ce443     H509    9.895   .     S
Ce443     H510    9.895   .     S
Ti444     Er640    10.024   .     S
Ti444     Er694    10.024   .     S
Ti444     Ti453    9.89   .     S
Ti445     Er650    10.024   .     S
Ti445     Er669    10.024   .     S
Ti445     Ce447    9.848   .     S
Ce446     Ti448    9.848   .     S
Ce446     Ce447    9.796   .     S
Ti448     Er668    10.024   .     S
Ti448     Er663    10.024   .     S
Ti448     Ti452    9.89   .     S
Ti448     Ti456    9.89   .     S
Ti449     Er638    10.024   .     S
Ti449     Er646    10.024   .     S
Ti449     Ce451    9.848   .     S
Ce450     Ti452    9.848   .     S
Ce450     Ce451    9.796   .     S
Ti452     Er671    10.024   .     S
Ti452     Er663    10.024   .     S
Ti452     Ti456    9.89   .     S
Ti453     Er640    10.024   .     S
Ti453     Er654    10.024   .     S
Ti453     Ce455    9.848   .     S
Ce454     Ti456    9.848   .     S
Ce454     H462    9.895   .     S
Ce454     H461    9.895   .     S
Ce454     Ce455    9.796   .     S
Ti456     Er671    10.024   .     S
Ti456     Er668    10.024   .     S
S457     H461    9.719   .     S
S457     He721    10.218   .     S
S457     S458    9.644   .     S
S458     H464    9.719   1_565     S
S458     He721    10.218   .     S
S459     H462    9.719   .     S
S459     He724    10.218   .     S
S459     S460    9.644   .     S
S460     H468    9.719   1_565     S
S460     He724    10.218   .     S
H461     Er671    10.125   .     S
H461     H462    9.692   .     S
H461     He807    10.183   .     S
H462     Er668    10.125   .     S
H462     He807    10.183   .     S
H463     Er659    10.125   .     S
H463     S466    9.719   .     S
H463     Ce547    9.895   .     S
H463     H464    9.692   .     S
H463     He740    10.183   .     S
H464     Er717    10.125   1_545     S
H464     S458    9.719   1_545     S
H464     Ce547    9.895   .     S
H464     He740    10.183   .     S
S465     S494    10.131   .     S
S465     H467    9.719   .     S
S465     He812    10.218   .     S
S465     S466    9.644   .     S
S466     S493    10.131   .     S
S466     He812    10.218   .     S
H467     Er633    10.125   .     S
H467     Ce483    9.895   .     S
H467     H468    9.692   .     S
H467     He787    10.183   .     S
H468     Er666    10.125   1_545     S
H468     S460    9.719   1_545     S
H468     Ce483    9.895   .     S
H468     He787    10.183   .     S
Ti469     Er625    10.024   .     S
Ti469     Er674    10.024   .     S
Ti469     Ce470    9.848   .     S
Ti469     Ti473    9.89   .     S
Ti469     Ti489    9.89   .     S
Ce470     Ce471    9.796   .     S
Ce471     Ti472    9.848   .     S
Ti472     Er673    10.024   1_554     S
Ti472     Er675    10.024   .     S
Ti472     Ti481    9.89   .     S
Ti472     Ti485    9.89   .     S
Ti473     Er644    10.024   .     S
Ti473     Er674    10.024   .     S
Ti473     Ce474    9.848   .     S
Ti473     Ti489    9.89   .     S
Ce474     Ce475    9.796   .     S
Ce475     Ti476    9.848   .     S
Ti476     Er682    10.024   .     S
Ti476     Er699    10.024   1_545     S
Ti476     Ti480    9.89   .     S
Ti476     Ti488    9.89   .     S
Ti477     Er658    10.024   1_545     S
Ti477     Er666    10.024   1_544     S
Ti477     Ce479    9.848   1_545     S
Ti477     Ti492    9.89   .     S
Ti477     Ti484    9.89   .     S
Ce478     Ti480    9.848   1_565     S
Ce478     H505    9.895   .     S
Ce478     H506    9.895   .     S
Ce478     Ce479    9.796   .     S
Ce479     Ti477    9.848   1_565     S
Ti480     Er688    10.024   1_545     S
Ti480     Er699    10.024   1_545     S
Ti480     Ce478    9.848   1_545     S
Ti480     Ti488    9.89   .     S
Ti481     Er690    10.024   1_554     S
Ti481     Er673    10.024   1_554     S
Ti481     Ce482    9.848   1_554     S
Ti481     Ti485    9.89   .     S
Ce482     Ti481    9.848   1_556     S
Ce482     Ce483    9.796   .     S
Ce483     Ti484    9.848   1_556     S
Ti484     Er633    10.024   1_554     S
Ti484     Er666    10.024   1_544     S
Ti484     Ce483    9.848   1_554     S
Ti484     Ti492    9.89   .     S
Ti485     Er690    10.024   1_554     S
Ti485     Er675    10.024   .     S
Ti485     Ce487    9.848   .     S
Ce486     Ti488    9.848   .     S
Ce486     H528    9.895   .     S
Ce486     H527    9.895   .     S
Ce486     Ce487    9.796   .     S
Ce487     H563    9.895   .     S
Ce487     H564    9.895   .     S
Ti488     Er682    10.024   .     S
Ti488     Er688    10.024   1_545     S
Ti489     Er644    10.024   .     S
Ti489     Er625    10.024   .     S
Ti489     Ce490    9.848   .     S
Ce490     H580    9.895   .     S
Ce490     H579    9.895   .     S
Ce490     Ce491    9.796   .     S
Ce491     Ti492    9.848   .     S
Ce491     H500    9.895   .     S
Ce491     H499    9.895   .     S
Ti492     Er633    10.024   1_554     S
Ti492     Er658    10.024   1_545     S
S493     H495    9.719   1_655     S
S493     He758    10.218   .     S
S493     S494    9.644   .     S
S494     H499    9.719   1_556     S
S494     He758    10.218   .     S
H495     Er659    10.125   1_455     S
H495     S493    9.719   1_455     S
H495     Ce551    9.895   .     S
H495     H496    9.692   .     S
H495     He788    10.183   .     S
H496     Er652    10.125   1_545     S
H496     S502    9.719   1_545     S
H496     Ce551    9.895   .     S
H496     He788    10.183   .     S
S497     H500    9.719   1_565     S
S497     He814    10.218   .     S
S497     S498    9.644   .     S
S498     H503    9.719   1_655     S
S498     He814    10.218   .     S
H499     Er633    10.125   1_554     S
H499     S494    9.719   1_554     S
H499     H500    9.692   .     S
H499     He784    10.183   .     S
H500     Er658    10.125   1_545     S
H500     S497    9.719   1_545     S
H500     He784    10.183   .     S
S501     H504    9.719   1_556     S
S501     He813    10.218   .     S
S501     S502    9.644   .     S
S502     H496    9.719   1_565     S
S502     He813    10.218   .     S
H503     Er632    10.125   1_455     S
H503     S498    9.719   1_455     S
H503     Ce603    9.895   .     S
H503     H504    9.692   .     S
H503     He790    10.183   .     S
H504     Er660    10.125   1_554     S
H504     S501    9.719   1_554     S
H504     Ce603    9.895   .     S
H504     He790    10.183   .     S
H505     Er699    10.125   .     S
H505     S508    9.719   .     S
H505     H506    9.692   .     S
H505     He760    10.183   .     S
H506     Er688    10.125   .     S
H506     S514    9.719   .     S
H506     He760    10.183   .     S
S507     H509    9.719   .     S
S507     He781    10.218   .     S
S507     S508    9.644   .     S
S508     He781    10.218   .     S
H509     Er640    10.125   .     S
H509     H510    9.692   .     S
H509     He761    10.183   .     S
H510     Er694    10.125   .     S
H510     S512    9.719   .     S
H510     He761    10.183   .     S
S511     S619    10.131   .     S
S511     H515    9.719   .     S
S511     He731    10.218   .     S
S511     S512    9.644   .     S
S512     S620    10.131   .     S
S512     He731    10.218   .     S
S513     S521    10.131   .     S
S513     H516    9.719   .     S
S513     He767    10.218   .     S
S513     S514    9.644   .     S
S514     S522    10.131   .     S
S514     He767    10.218   .     S
H515     Er676    10.125   .     S
H515     Ce595    9.895   .     S
H515     H516    9.692   .     S
H515     He743    10.183   .     S
H516     Er643    10.125   .     S
H516     Ce595    9.895   .     S
H516     He743    10.183   .     S
S517     S615    10.131   .     S
S517     H519    9.719   .     S
S517     He744    10.218   .     S
S517     S518    9.644   .     S
S518     S616    10.131   .     S
S518     H523    9.719   1_565     S
S518     He744    10.218   .     S
H519     Er634    10.125   .     S
H519     Ce602    9.895   .     S
H519     H520    9.692   .     S
H519     He800    10.183   .     S
H520     Er643    10.125   .     S
H520     S521    9.719   .     S
H520     Ce602    9.895   .     S
H520     He800    10.183   .     S
S521     He773    10.218   .     S
S521     S522    9.644   .     S
S522     H528    9.719   1_565     S
S522     He773    10.218   .     S
H523     Er627    10.125   1_545     S
H523     S518    9.719   1_545     S
H523     Ce539    9.895   .     S
H523     H524    9.692   .     S
H523     He732    10.183   .     S
H524     Er661    10.125   .     S
H524     S525    9.719   .     S
H524     Ce539    9.895   .     S
H524     He732    10.183   .     S
S525     He739    10.218   .     S
S525     S526    9.644   .     S
S526     H527    9.719   .     S
S526     He739    10.218   .     S
H527     Er682    10.125   .     S
H527     H528    9.692   .     S
H527     He749    10.183   .     S
H528     Er688    10.125   1_545     S
H528     S522    9.719   1_545     S
H528     He749    10.183   .     S
Ti529     Er635    10.024   .     S
Ti529     Er626    10.024   .     S
Ti529     Ce530    9.848   .     S
Ti529     Ti549    9.89   .     S
Ti529     Ti533    9.89   .     S
Ce530     H576    9.895   .     S
Ce530     H575    9.895   .     S
Ce530     Ce531    9.796   .     S
Ce531     Ti532    9.848   .     S
Ti532     Er637    10.024   .     S
Ti532     Er683    10.024   1_455     S
Ti532     Ti540    9.89   .     S
Ti532     Ti545    9.89   .     S
Ti533     Er635    10.024   .     S
Ti533     Er630    10.024   .     S
Ti533     Ce534    9.848   .     S
Ti533     Ti549    9.89   .     S
Ce534     Ce535    9.796   .     S
Ce535     Ti536    9.848   .     S
Ti536     Er665    10.024   1_545     S
Ti536     Er661    10.024   .     S
Ti536     Ti537    9.89   .     S
Ti536     Ti541    9.89   .     S
Ti537     Er627    10.024   1_545     S
Ti537     Er661    10.024   .     S
Ti537     Ce539    9.848   .     S
Ti537     Ti541    9.89   .     S
Ce538     Ti540    9.848   .     S
Ce538     H584    9.895   .     S
Ce538     H583    9.895   .     S
Ce538     Ce539    9.796   .     S
Ti540     Er637    10.024   .     S
Ti540     Er687    10.024   1_455     S
Ti540     Ti545    9.89   .     S
Ti541     Er665    10.024   1_545     S
Ti541     Er627    10.024   1_545     S
Ti541     Ce542    9.848   1_545     S
Ce542     Ti541    9.848   1_565     S
Ce542     H614    9.895   .     S
Ce542     H613    9.895   .     S
Ce542     Ce543    9.796   .     S
Ce543     Ti544    9.848   1_565     S
Ti544     Er717    10.024   1_445     S
Ti544     Er652    10.024   1_545     S
Ti544     Ce543    9.848   1_545     S
Ti544     Ti548    9.89   .     S
Ti544     Ti552    9.89   .     S
Ti545     Er683    10.024   1_455     S
Ti545     Er687    10.024   1_455     S
Ti545     Ce546    9.848   1_455     S
Ce546     Ti545    9.848   1_655     S
Ce546     Ce547    9.796   .     S
Ce547     Ti548    9.848   1_655     S
Ti548     Er717    10.024   1_445     S
Ti548     Er659    10.024   1_455     S
Ti548     Ce547    9.848   1_455     S
Ti548     Ti552    9.89   .     S
Ti549     Er626    10.024   .     S
Ti549     Er630    10.024   .     S
Ti549     Ce550    9.848   .     S
Ce550     H557    9.895   .     S
Ce550     H558    9.895   .     S
Ce550     Ce551    9.796   .     S
Ce551     Ti552    9.848   .     S
Ti552     Er659    10.024   1_455     S
Ti552     Er652    10.024   1_545     S
S553     S573    10.131   .     S
S553     H557    9.719   .     S
S553     He755    10.218   .     S
S553     S554    9.644   .     S
S554     S574    10.131   .     S
S554     H560    9.719   1_556     S
S554     He755    10.218   .     S
S555     H558    9.719   .     S
S555     He747    10.218   .     S
S555     S556    9.644   .     S
S556     H564    9.719   1_556     S
S556     He747    10.218   .     S
H557     Er626    10.125   .     S
H557     H558    9.692   .     S
H557     He794    10.183   .     S
H558     Er630    10.125   .     S
H558     He794    10.183   .     S
H559     Er629    10.125   .     S
H559     S561    9.719   .     S
H559     Ce591    9.895   .     S
H559     H560    9.692   .     S
H559     He750    10.183   .     S
H560     Er689    10.125   1_554     S
H560     S554    9.719   1_554     S
H560     Ce591    9.895   .     S
H560     He750    10.183   .     S
S561     He754    10.218   .     S
S561     S562    9.644   .     S
S562     H563    9.719   .     S
S562     He754    10.218   .     S
H563     Er675    10.125   .     S
H563     H564    9.692   .     S
H563     He742    10.183   .     S
H564     Er690    10.125   1_554     S
H564     S556    9.719   1_554     S
H564     He742    10.183   .     S
H565     Er677    10.125   .     S
H565     S568    9.719   .     S
H565     Ce607    9.895   .     S
H565     H566    9.692   .     S
H565     He795    10.183   .     S
H566     Er689    10.125   .     S
H566     S574    9.719   .     S
H566     Ce607    9.895   .     S
H566     He795    10.183   .     S
S567     H569    9.719   .     S
S567     He783    10.218   .     S
S567     S568    9.644   .     S
S568     He783    10.218   .     S
H569     Er669    10.125   .     S
H569     H570    9.692   .     S
H569     He765    10.183   .     S
H570     Er695    10.125   .     S
H570     S572    9.719   .     S
H570     He765    10.183   .     S
S571     H576    9.719   .     S
S571     He728    10.218   .     S
S571     S572    9.644   .     S
S572     He728    10.218   .     S
S573     H575    9.719   .     S
S573     He752    10.218   .     S
S573     S574    9.644   .     S
S574     He752    10.218   .     S
H575     Er626    10.125   .     S
H575     H576    9.692   .     S
H575     He782    10.183   .     S
H576     Er635    10.125   .     S
H576     He782    10.183   .     S
S577     H580    9.719   .     S
S577     He756    10.218   .     S
S577     S578    9.644   .     S
S578     H587    9.719   1_655     S
S578     He756    10.218   .     S
H579     Er644    10.125   .     S
H579     S581    9.719   .     S
H579     H580    9.692   .     S
H579     He796    10.183   .     S
H580     Er625    10.125   .     S
H580     He796    10.183   .     S
S581     He775    10.218   .     S
S581     S582    9.644   .     S
S582     H584    9.719   1_655     S
S582     He775    10.218   .     S
H583     Er637    10.125   .     S
H583     S585    9.719   .     S
H583     H584    9.692   .     S
H583     He748    10.183   .     S
H584     Er687    10.125   1_455     S
H584     S582    9.719   1_455     S
H584     He748    10.183   .     S
S585     He801    10.218   .     S
S585     S586    9.644   .     S
S586     H588    9.719   .     S
S586     He801    10.218   .     S
H587     Er686    10.125   1_455     S
H587     S578    9.719   1_455     S
H587     Ce590    9.895   .     S
H587     H588    9.692   .     S
H587     He733    10.183   .     S
H588     Er691    10.125   .     S
H588     Ce590    9.895   .     S
H588     He733    10.183   .     S
Ti589     Er629    10.024   .     S
Ti589     Er689    10.024   1_554     S
Ti589     Ce591    9.848   .     S
Ti589     Ti608    9.89   .     S
Ti589     Ti596    9.89   .     S
Ce590     Ti592    9.848   .     S
Ce590     Ce591    9.796   .     S
Ti592     Er686    10.024   1_455     S
Ti592     Er691    10.024   .     S
Ti592     Ti609    9.89   .     S
Ti592     Ti597    9.89   .     S
Ti593     Er643    10.024   .     S
Ti593     Er676    10.024   .     S
Ti593     Ce595    9.848   .     S
Ti593     Ti601    9.89   .     S
Ti593     Ti600    9.89   .     S
Ce594     Ti596    9.848   .     S
Ce594     Ce595    9.796   .     S
Ti596     Er677    10.024   1_554     S
Ti596     Er629    10.024   .     S
Ti596     Ti608    9.89   .     S
Ti597     Er684    10.024   1_455     S
Ti597     Er691    10.024   .     S
Ti597     Ce599    9.848   .     S
Ti597     Ti609    9.89   .     S
Ce598     Ti600    9.848   .     S
Ce598     H617    9.895   .     S
Ce598     H618    9.895   .     S
Ce598     Ce599    9.796   .     S
Ti600     Er634    10.024   .     S
Ti600     Er676    10.024   .     S
Ti600     Ti601    9.89   .     S
Ti601     Er643    10.024   .     S
Ti601     Er634    10.024   .     S
Ti601     Ce602    9.848   .     S
Ce602     Ce603    9.796   .     S
Ce603     Ti604    9.848   .     S
Ti604     Er632    10.024   1_455     S
Ti604     Er660    10.024   1_554     S
Ti604     Ti612    9.89   .     S
Ti604     Ti605    9.89   .     S
Ti605     Er660    10.024   1_554     S
Ti605     Er718    10.024   1_454     S
Ti605     Ce606    9.848   1_554     S
Ti605     Ti612    9.89   .     S
Ce606     Ti605    9.848   1_556     S
Ce606     Ce607    9.796   .     S
Ce607     Ti608    9.848   1_556     S
Ti608     Er677    10.024   1_554     S
Ti608     Er689    10.024   1_554     S
Ti608     Ce607    9.848   1_554     S
Ti609     Er684    10.024   1_455     S
Ti609     Er686    10.024   1_455     S
Ti609     Ce610    9.848   1_455     S
Ce610     Ti609    9.848   1_655     S
Ce610     Ce611    9.796   .     S
Ce611     Ti612    9.848   1_655     S
Ti612     Er632    10.024   1_455     S
Ti612     Er718    10.024   1_454     S
Ti612     Ce611    9.848   1_455     S
H613     Er665    10.125   .     S
H613     S621    9.719   .     S
H613     H614    9.692   .     S
H613     He793    10.183   .     S
H614     Er627    10.125   .     S
H614     S616    9.719   .     S
H614     He793    10.183   .     S
S615     H617    9.719   .     S
S615     He768    10.218   .     S
S615     S616    9.644   .     S
S616     He768    10.218   .     S
H617     Er634    10.125   .     S
H617     H618    9.692   .     S
H617     He751    10.183   .     S
H618     Er676    10.125   .     S
H618     S619    9.719   .     S
H618     He751    10.183   .     S
S619     He730    10.218   .     S
S619     S620    9.644   .     S
S620     H624    9.719   .     S
S620     He730    10.218   .     S
S621     He791    10.218   .     S
S621     S622    9.644   .     S
S622     H623    9.719   .     S
S622     He791    10.218   .     S
H623     Er654    10.125   .     S
H623     H624    9.692   .     S
H623     He759    10.183   .     S
H624     Er694    10.125   .     S
H624     He759    10.183   .     S
Er625     Er644    10.041   .     S
Er625     Er674    10.041   .     S
Er626     Er635    10.041   .     S
Er626     Er630    10.041   .     S
Er627     Ti541    10.024   1_565     S
Er627     Ti537    10.024   1_565     S
Er627     Er665    10.041   .     S
Er627     Er661    10.041   1_565     S
Er627     H523    10.125   1_565     S
Er628     Er706    10.041   .     S
Er628     Er692    10.041   .     S
Er629     Er689    10.041   1_554     S
Er629     Er677    10.041   1_554     S
Er630     Er635    10.041   .     S
Er631     Er655    10.041   .     S
Er631     Er636    10.041   .     S
Er632     Ti612    10.024   1_655     S
Er632     Ti604    10.024   1_655     S
Er632     Er718    10.041   1_554     S
Er632     Er660    10.041   1_654     S
Er632     H503    10.125   1_655     S
Er633     Ti484    10.024   1_556     S
Er633     Ti492    10.024   1_556     S
Er633     Er658    10.041   1_546     S
Er633     Er666    10.041   1_545     S
Er633     H499    10.125   1_556     S
Er634     Er643    10.041   .     S
Er634     Er676    10.041   .     S
Er636     Er655    10.041   .     S
Er637     Er683    10.041   1_455     S
Er637     Er687    10.041   1_455     S
Er638     Er693    10.041   .     S
Er638     Er646    10.041   .     S
Er639     Ti140    10.024   1_545     S
Er639     Ti136    10.024   1_545     S
Er639     Er713    10.041   .     S
Er639     Er649    10.041   1_545     S
Er639     H180    10.125   1_545     S
Er640     Er654    10.041   .     S
Er640     Er694    10.041   .     S
Er641     Er648    10.041   .     S
Er641     Er664    10.041   .     S
Er642     Ti228    10.024   1_455     S
Er642     Ti237    10.024   1_455     S
Er642     Er711    10.041   .     S
Er642     Er680    10.041   1_455     S
Er642     H72    10.125   1_455     S
Er643     Er676    10.041   .     S
Er644     Er674    10.041   .     S
Er645     Er679    10.041   .     S
Er645     Er670    10.041   .     S
Er646     Er693    10.041   .     S
Er647     Er656    10.041   1_556     S
Er647     Er714    10.041   1_556     S
Er648     Er664    10.041   .     S
Er649     Er713    10.041   1_565     S
Er649     Er639    10.041   1_565     S
Er650     Er695    10.041   .     S
Er650     Er669    10.041   .     S
Er651     Er662    10.041   1_565     S
Er651     Er720    10.041   1_565     S
Er652     Ti552    10.024   1_565     S
Er652     Ti544    10.024   1_565     S
Er652     Er717    10.041   1_455     S
Er652     Er659    10.041   1_465     S
Er652     H496    10.125   1_565     S
Er653     Er672    10.041   1_556     S
Er653     Er715    10.041   1_556     S
Er654     Er694    10.041   .     S
Er656     Ti308    10.024   1_554     S
Er656     Ti309    10.024   1_554     S
Er656     Er714    10.041   .     S
Er656     Er647    10.041   1_554     S
Er656     H84    10.125   1_554     S
Er657     Er667    10.041   1_655     S
Er657     Er710    10.041   1_655     S
Er658     Ti477    10.024   1_565     S
Er658     Ti492    10.024   1_565     S
Er658     Er633    10.041   1_564     S
Er658     Er666    10.041   1_554     S
Er658     H500    10.125   1_565     S
Er659     Ti548    10.024   1_655     S
Er659     Ti552    10.024   1_655     S
Er659     Er717    10.041   1_545     S
Er659     Er652    10.041   1_645     S
Er659     H495    10.125   1_655     S
Er660     Ti605    10.024   1_556     S
Er660     Ti604    10.024   1_556     S
Er660     Er718    10.041   1_455     S
Er660     Er632    10.041   1_456     S
Er660     H504    10.125   1_556     S
Er661     Er665    10.041   1_545     S
Er661     Er627    10.041   1_545     S
Er662     Ti220    10.024   1_545     S
Er662     Ti221    10.024   1_545     S
Er662     Er651    10.041   1_545     S
Er662     Er720    10.041   .     S
Er662     H172    10.125   1_545     S
Er663     Er668    10.041   .     S
Er663     Er671    10.041   .     S
Er665     Ti536    10.024   1_565     S
Er665     Ti541    10.024   1_565     S
Er665     Er661    10.041   1_565     S
Er665     H371    10.125   1_565     S
Er666     Ti477    10.024   1_566     S
Er666     Ti484    10.024   1_566     S
Er666     Er633    10.041   1_565     S
Er666     Er658    10.041   1_556     S
Er666     H468    10.125   1_565     S
Er666     H420    10.125   1_556     S
Er667     Ti324    10.024   1_455     S
Er667     Ti317    10.024   1_455     S
Er667     Er657    10.041   1_455     S
Er667     Er710    10.041   .     S
Er667     H64    10.125   1_455     S
Er668     Er671    10.041   .     S
Er669     Er695    10.041   .     S
Er670     Er679    10.041   .     S
Er672     Ti132    10.024   1_554     S
Er672     Ti125    10.024   1_554     S
Er672     Er653    10.041   1_554     S
Er672     Er715    10.041   .     S
Er672     H78    10.125   1_554     S
Er673     Ti481    10.024   1_556     S
Er673     Ti472    10.024   1_556     S
Er673     Er675    10.041   1_556     S
Er673     Er690    10.041   .     S
Er673     H339    10.125   1_556     S
Er675     Er673    10.041   1_554     S
Er675     Er690    10.041   1_554     S
Er677     Ti596    10.024   1_556     S
Er677     Ti608    10.024   1_556     S
Er677     Er629    10.041   1_556     S
Er677     Er689    10.041   .     S
Er677     H343    10.125   1_556     S
Er678     Ti224    10.024   1_545     S
Er678     Ti236    10.024   1_545     S
Er678     Er707    10.041   1_655     S
Er678     Er701    10.041   1_645     S
Er678     H59    10.125   1_545     S
Er680     Er711    10.041   1_655     S
Er680     Er642    10.041   1_655     S
Er681     Er700    10.041   .     S
Er681     Er716    10.041   .     S
Er682     Er699    10.041   1_545     S
Er682     Er688    10.041   1_545     S
Er683     Ti532    10.024   1_655     S
Er683     Ti545    10.024   1_655     S
Er683     Er637    10.041   1_655     S
Er683     Er687    10.041   .     S
Er683     H350    10.125   1_655     S
Er684     Ti609    10.024   1_655     S
Er684     Ti597    10.024   1_655     S
Er684     Er691    10.041   1_655     S
Er684     Er686    10.041   .     S
Er684     H359    10.125   1_655     S
Er685     Er697    10.041   .     S
Er685     Er705    10.041   .     S
Er686     Ti592    10.024   1_655     S
Er686     Ti609    10.024   1_655     S
Er686     Er691    10.041   1_655     S
Er686     H587    10.125   1_655     S
Er687     Ti545    10.024   1_655     S
Er687     Ti540    10.024   1_655     S
Er687     Er637    10.041   1_655     S
Er687     H584    10.125   1_655     S
Er688     Ti480    10.024   1_565     S
Er688     Ti488    10.024   1_565     S
Er688     Er699    10.041   .     S
Er688     Er682    10.041   1_565     S
Er688     H528    10.125   1_565     S
Er689     Ti608    10.024   1_556     S
Er689     Ti589    10.024   1_556     S
Er689     Er629    10.041   1_556     S
Er689     H560    10.125   1_556     S
Er690     Ti485    10.024   1_556     S
Er690     Ti481    10.024   1_556     S
Er690     Er675    10.041   1_556     S
Er690     H564    10.125   1_556     S
Er691     Er684    10.041   1_455     S
Er691     Er686    10.041   1_455     S
Er692     Er706    10.041   .     S
Er696     Ti321    10.024   1_455     S
Er696     Ti304    10.024   1_455     S
Er696     Er709    10.041   1_556     S
Er696     Er702    10.041   1_456     S
Er696     H51    10.125   1_455     S
Er697     Er705    10.041   .     S
Er698     Ti128    10.024   1_554     S
Er698     Ti124    10.024   1_554     S
Er698     Er708    10.041   1_565     S
Er698     Er719    10.041   1_564     S
Er698     H55    10.125   1_554     S
Er699     Ti476    10.024   1_565     S
Er699     Ti480    10.024   1_565     S
Er699     Er682    10.041   1_565     S
Er699     H367    10.125   1_565     S
Er700     Er716    10.041   .     S
Er701     Ti240    10.024   1_455     S
Er701     Ti236    10.024   1_455     S
Er701     Er707    10.041   1_565     S
Er701     Er678    10.041   1_465     S
Er701     H60    10.125   1_455     S
Er702     Ti304    10.024   1_554     S
Er702     Ti312    10.024   1_554     S
Er702     Er709    10.041   1_655     S
Er702     Er696    10.041   1_654     S
Er702     H52    10.125   1_554     S
Er703     Er704    10.041   .     S
Er703     Er712    10.041   .     S
Er704     Er712    10.041   .     S
Er707     Ti240    10.024   1_445     S
Er707     Ti224    10.024   1_445     S
Er707     Er701    10.041   1_545     S
Er707     Er678    10.041   1_455     S
Er707     H252    10.125   1_545     S
Er707     H163    10.125   1_455     S
Er708     Ti137    10.024   1_544     S
Er708     Ti128    10.024   1_544     S
Er708     Er719    10.041   1_554     S
Er708     Er698    10.041   1_545     S
Er708     H104    10.125   1_554     S
Er708     H245    10.125   1_545     S
Er709     Ti312    10.024   1_454     S
Er709     Ti321    10.024   1_454     S
Er709     Er696    10.041   1_554     S
Er709     Er702    10.041   1_455     S
Er709     H160    10.125   1_455     S
Er709     H102    10.125   1_554     S
Er710     Ti324    10.024   1_455     S
Er710     Ti316    10.024   1_455     S
Er710     Er657    10.041   1_455     S
Er710     H90    10.125   1_455     S
Er711     Ti232    10.024   1_455     S
Er711     Ti237    10.024   1_455     S
Er711     Er680    10.041   1_455     S
Er711     H86    10.125   1_455     S
Er713     Ti144    10.024   1_545     S
Er713     Ti140    10.024   1_545     S
Er713     Er649    10.041   1_545     S
Er713     H336    10.125   1_545     S
Er714     Ti309    10.024   1_554     S
Er714     Ti313    10.024   1_554     S
Er714     Er647    10.041   1_554     S
Er714     H182    10.125   1_554     S
Er715     Ti125    10.024   1_554     S
Er715     Ti141    10.024   1_554     S
Er715     Er653    10.041   1_554     S
Er715     H186    10.125   1_554     S
Er717     Ti544    10.024   1_665     S
Er717     Ti548    10.024   1_665     S
Er717     Er652    10.041   1_655     S
Er717     Er659    10.041   1_565     S
Er717     H428    10.125   1_655     S
Er717     H464    10.125   1_565     S
Er718     Ti612    10.024   1_656     S
Er718     Ti605    10.024   1_656     S
Er718     Er660    10.041   1_655     S
Er718     Er632    10.041   1_556     S
Er718     H416    10.125   1_556     S
Er718     H432    10.125   1_655     S
Er719     Ti137    10.024   1_545     S
Er719     Ti124    10.024   1_545     S
Er719     Er708    10.041   1_556     S
Er719     Er698    10.041   1_546     S
Er719     H56    10.125   1_545     S
Er720     Ti221    10.024   1_545     S
Er720     Ti229    10.024   1_545     S
Er720     Er651    10.041   1_545     S
Er720     H332    10.125   1_545     S
He721     He807    10.599   .     S
He721     He740    10.599   1_565     S
He722     He810    10.599   .     S
He722     He757    10.599   1_655     S
He723     He810    10.599   .     S
He723     He789    10.599   1_655     S
He724     He807    10.599   .     S
He724     He787    10.599   1_565     S
He725     He806    10.599   .     S
He725     He803    10.599   1_556     S
He726     He766    10.599   .     S
He726     He741    10.599   .     S
He727     He771    10.599   .     S
He727     He764    10.599   .     S
He728     He782    10.599   .     S
He728     He765    10.599   .     S
He729     He805    10.599   .     S
He729     He763    10.599   .     S
He730     He751    10.599   .     S
He730     He759    10.599   .     S
He731     He743    10.599   .     S
He731     He761    10.599   .     S
He732     He739    10.599   .     S
He732     He744    10.599   1_545     S
He733     He756    10.599   1_455     S
He733     He801    10.599   .     S
He734     He762    10.599   .     S
He734     He737    10.599   .     S
He735     He806    10.599   .     S
He735     He785    10.599   1_556     S
He736     He769    10.599   .     S
He736     He778    10.599   .     S
He737     He778    10.599   .     S
He738     He802    10.599   .     S
He738     He779    10.599   1_554     S
He739     He749    10.599   .     S
He740     He812    10.599   .     S
He740     He721    10.599   1_545     S
He741     He753    10.599   .     S
He742     He747    10.599   1_554     S
He742     He754    10.599   .     S
He743     He767    10.599   .     S
He744     He732    10.599   1_565     S
He744     He800    10.599   .     S
He745     He799    10.599   1_545     S
He745     He746    10.599   .     S
He746     He772    10.599   .     S
He747     He742    10.599   1_556     S
He747     He794    10.599   .     S
He748     He801    10.599   .     S
He748     He775    10.599   1_455     S
He749     He773    10.599   1_545     S
He750     He754    10.599   .     S
He750     He755    10.599   1_554     S
He751     He768    10.599   .     S
He752     He782    10.599   .     S
He752     He795    10.599   .     S
He753     He797    10.599   .     S
He755     He750    10.599   1_556     S
He755     He794    10.599   .     S
He756     He733    10.599   1_655     S
He756     He796    10.599   .     S
He757     He722    10.599   1_455     S
He757     He798    10.599   .     S
He758     He784    10.599   1_556     S
He758     He788    10.599   1_655     S
He759     He791    10.599   .     S
He760     He767    10.599   .     S
He760     He781    10.599   .     S
He761     He781    10.599   .     S
He762     He769    10.599   .     S
He763     He764    10.599   .     S
He765     He783    10.599   .     S
He766     He786    10.599   .     S
He768     He793    10.599   .     S
He770     He811    10.599   .     S
He770     He776    10.599   1_655     S
He771     He805    10.599   .     S
He772     He816    10.599   1_545     S
He773     He800    10.599   .     S
He773     He749    10.599   1_565     S
He774     He815    10.599   1_455     S
He774     He804    10.599   .     S
He775     He748    10.599   1_655     S
He775     He796    10.599   .     S
He776     He770    10.599   1_455     S
He776     He804    10.599   .     S
He777     He780    10.599   1_556     S
He777     He809    10.599   .     S
He779     He738    10.599   1_556     S
He779     He809    10.599   .     S
He780     He777    10.599   1_554     S
He780     He802    10.599   .     S
He783     He795    10.599   .     S
He784     He814    10.599   1_545     S
He784     He758    10.599   1_554     S
He785     He792    10.599   .     S
He785     He735    10.599   1_554     S
He786     He797    10.599   .     S
He787     He812    10.599   .     S
He787     He724    10.599   1_545     S
He788     He813    10.599   1_545     S
He788     He758    10.599   1_455     S
He789     He798    10.599   .     S
He789     He723    10.599   1_455     S
He790     He814    10.599   1_455     S
He790     He813    10.599   1_554     S
He791     He793    10.599   .     S
He792     He803    10.599   .     S
He799     He745    10.599   1_565     S
He799     He808    10.599   .     S
He803     He725    10.599   1_554     S
He808     He816    10.599   .     S
He811     He815    10.599   .     S
He813     He790    10.599   1_556     S
He813     He788    10.599   1_565     S
He814     He790    10.599   1_655     S
He814     He784    10.599   1_565     S
He815     He774    10.599   1_655     S
He816     He772    10.599   1_565     S
