data_pzha
_audit_creation_date              2020-02-02
_audit_creation_method            'Pymatgen'
_symmetry_space_group_name_H-M    'P1'
_symmetry_Int_Tables_number       1
loop_
_symmetry_equiv_pos_as_xyz
  x,y,z
_cell_length_a                    120.2071
_cell_length_b                    120.2071
_cell_length_c                    120.2071
_cell_angle_alpha                 90.0
_cell_angle_beta                 90.0
_cell_angle_gamma                 90.0
loop_
_atom_site_label
_atom_site_type_symbol
_atom_site_fract_x
_atom_site_fract_y
_atom_site_fract_z
H1     H     0.745   0.9584   0.1962
H2     H     0.8038   0.9584   0.255
H3     H     0.745   0.0416   0.1962
H4     H     0.8038   0.0416   0.255
Ti5     Ti     0.6224   0.1248   0.3776
V6     V     0.6509   0.1968   0.4079
V7     V     0.5921   0.1968   0.3491
Ce8     Ce     0.623   0.9584   0.377
Ce9     Ce     0.623   0.0416   0.377
Er10     Er     0.674   0.0   0.326
S11     S     0.7328   0.0   0.2672
Ti12     Ti     0.6224   0.8752   0.3776
V13     V     0.6509   0.8032   0.4079
V14     V     0.5921   0.8032   0.3491
H15     H     0.5416   0.6962   0.245
H16     H     0.5416   0.755   0.3038
H17     H     0.4584   0.6962   0.245
H18     H     0.4584   0.755   0.3038
Ti19     Ti     0.3752   0.8776   0.1224
V20     V     0.3032   0.8491   0.0921
V21     V     0.3032   0.9079   0.1509
Ce22     Ce     0.5416   0.877   0.123
Ce23     Ce     0.4584   0.877   0.123
Er24     Er     0.5   0.826   0.174
S25     S     0.5   0.7672   0.2328
Ti26     Ti     0.6248   0.8776   0.1224
V27     V     0.6968   0.8491   0.0921
V28     V     0.6968   0.9079   0.1509
H29     H     0.255   0.9584   0.1962
H30     H     0.1962   0.9584   0.255
H31     H     0.1962   0.0416   0.255
H32     H     0.255   0.0416   0.1962
Ti33     Ti     0.3776   0.1248   0.3776
V34     V     0.4079   0.1968   0.3491
V35     V     0.3491   0.1968   0.4079
Ce36     Ce     0.377   0.9584   0.377
Ce37     Ce     0.377   0.0416   0.377
Er38     Er     0.326   0.0   0.326
S39     S     0.2672   0.0   0.2672
Ti40     Ti     0.3776   0.8752   0.3776
V41     V     0.3491   0.8032   0.4079
V42     V     0.4079   0.8032   0.3491
H43     H     0.245   0.6962   0.4584
H44     H     0.3038   0.755   0.4584
H45     H     0.245   0.6962   0.5416
H46     H     0.3038   0.755   0.5416
Ti47     Ti     0.1224   0.8776   0.6248
V48     V     0.0921   0.8491   0.6968
V49     V     0.1509   0.9079   0.6968
Ce50     Ce     0.123   0.877   0.5416
Ce51     Ce     0.123   0.877   0.4584
Er52     Er     0.174   0.826   0.5
S53     S     0.2328   0.7672   0.5
Ti54     Ti     0.1224   0.8776   0.3752
V55     V     0.0921   0.8491   0.3032
V56     V     0.1509   0.9079   0.3032
H57     H     0.1962   0.9584   0.745
H58     H     0.255   0.9584   0.8038
H59     H     0.1962   0.0416   0.745
H60     H     0.255   0.0416   0.8038
Ti61     Ti     0.3776   0.1248   0.6224
V62     V     0.4079   0.1968   0.6509
V63     V     0.3491   0.1968   0.5921
Ce64     Ce     0.377   0.9584   0.623
Ce65     Ce     0.377   0.0416   0.623
Er66     Er     0.326   0.0   0.674
S67     S     0.2672   0.0   0.7328
Ti68     Ti     0.3776   0.8752   0.6224
V69     V     0.4079   0.8032   0.6509
V70     V     0.3491   0.8032   0.5921
H71     H     0.4584   0.245   0.3038
H72     H     0.4584   0.3038   0.245
H73     H     0.5416   0.245   0.3038
H74     H     0.5416   0.3038   0.245
Ti75     Ti     0.6248   0.1224   0.1224
V76     V     0.6968   0.0921   0.1509
V77     V     0.6968   0.1509   0.0921
Ce78     Ce     0.5416   0.123   0.123
Ce79     Ce     0.4584   0.123   0.123
S80     S     0.5   0.2328   0.2328
Er81     Er     0.5   0.174   0.174
Ti82     Ti     0.3752   0.1224   0.1224
V83     V     0.3032   0.1509   0.0921
V84     V     0.3032   0.0921   0.1509
H85     H     0.1962   0.745   0.9584
H86     H     0.255   0.8038   0.9584
H87     H     0.1962   0.745   0.0416
H88     H     0.255   0.8038   0.0416
Ti89     Ti     0.3776   0.6224   0.1248
V90     V     0.4079   0.6509   0.1968
V91     V     0.3491   0.5921   0.1968
Ce92     Ce     0.377   0.623   0.9584
Ce93     Ce     0.377   0.623   0.0416
Er94     Er     0.326   0.674   0.0
S95     S     0.2672   0.7328   0.0
Ti96     Ti     0.3776   0.6224   0.8752
V97     V     0.4079   0.6509   0.8032
V98     V     0.3491   0.5921   0.8032
H99     H     0.245   0.5416   0.6962
H100     H     0.3038   0.5416   0.755
H101     H     0.245   0.4584   0.6962
H102     H     0.3038   0.4584   0.755
Ti103     Ti     0.1224   0.6248   0.8776
V104     V     0.0921   0.6968   0.8491
V105     V     0.1509   0.6968   0.9079
Ce106     Ce     0.123   0.5416   0.877
Ce107     Ce     0.123   0.4584   0.877
Er108     Er     0.174   0.5   0.826
S109     S     0.2328   0.5   0.7672
Ti110     Ti     0.1224   0.3752   0.8776
V111     V     0.0921   0.3032   0.8491
V112     V     0.1509   0.3032   0.9079
H113     H     0.1962   0.255   0.9584
H114     H     0.255   0.1962   0.9584
H115     H     0.255   0.1962   0.0416
H116     H     0.1962   0.255   0.0416
Ti117     Ti     0.3776   0.3776   0.1248
V118     V     0.3491   0.4079   0.1968
V119     V     0.4079   0.3491   0.1968
Ce120     Ce     0.377   0.377   0.9584
Ce121     Ce     0.377   0.377   0.0416
Er122     Er     0.326   0.326   0.0
S123     S     0.2672   0.2672   0.0
Ti124     Ti     0.3776   0.3776   0.8752
V125     V     0.4079   0.3491   0.8032
V126     V     0.3491   0.4079   0.8032
H127     H     0.4584   0.245   0.6962
H128     H     0.4584   0.3038   0.755
H129     H     0.5416   0.245   0.6962
H130     H     0.5416   0.3038   0.755
Ti131     Ti     0.3752   0.1224   0.8776
V132     V     0.3032   0.0921   0.8491
V133     V     0.3032   0.1509   0.9079
Ce134     Ce     0.5416   0.123   0.877
Ce135     Ce     0.4584   0.123   0.877
Er136     Er     0.5   0.174   0.826
S137     S     0.5   0.2328   0.7672
Ti138     Ti     0.6248   0.1224   0.8776
V139     V     0.6968   0.0921   0.8491
V140     V     0.6968   0.1509   0.9079
H141     H     0.745   0.1962   0.9584
H142     H     0.8038   0.255   0.9584
H143     H     0.745   0.1962   0.0416
H144     H     0.8038   0.255   0.0416
Ti145     Ti     0.6224   0.3776   0.1248
V146     V     0.6509   0.4079   0.1968
V147     V     0.5921   0.3491   0.1968
Ce148     Ce     0.623   0.377   0.9584
Ce149     Ce     0.623   0.377   0.0416
Er150     Er     0.674   0.326   0.0
S151     S     0.7328   0.2672   0.0
Ti152     Ti     0.6224   0.3776   0.8752
V153     V     0.6509   0.4079   0.8032
V154     V     0.5921   0.3491   0.8032
H155     H     0.4584   0.6962   0.755
H156     H     0.4584   0.755   0.6962
H157     H     0.5416   0.6962   0.755
H158     H     0.5416   0.755   0.6962
Ti159     Ti     0.6248   0.8776   0.8776
V160     V     0.6968   0.8491   0.9079
V161     V     0.6968   0.9079   0.8491
Ce162     Ce     0.5416   0.877   0.877
Ce163     Ce     0.4584   0.877   0.877
Er164     Er     0.5   0.826   0.826
S165     S     0.5   0.7672   0.7672
Ti166     Ti     0.3752   0.8776   0.8776
V167     V     0.3032   0.9079   0.8491
V168     V     0.3032   0.8491   0.9079
H169     H     0.745   0.8038   0.9584
H170     H     0.8038   0.745   0.9584
H171     H     0.8038   0.745   0.0416
H172     H     0.745   0.8038   0.0416
Ti173     Ti     0.6224   0.6224   0.1248
V174     V     0.6509   0.5921   0.1968
V175     V     0.5921   0.6509   0.1968
Ce176     Ce     0.623   0.623   0.9584
Ce177     Ce     0.623   0.623   0.0416
Er178     Er     0.674   0.674   0.0
S179     S     0.7328   0.7328   0.0
Ti180     Ti     0.6224   0.6224   0.8752
V181     V     0.5921   0.6509   0.8032
V182     V     0.6509   0.5921   0.8032
H183     H     0.6962   0.4584   0.755
H184     H     0.755   0.4584   0.6962
H185     H     0.6962   0.5416   0.755
H186     H     0.755   0.5416   0.6962
Ti187     Ti     0.8776   0.3752   0.8776
V188     V     0.8491   0.3032   0.9079
V189     V     0.9079   0.3032   0.8491
Ce190     Ce     0.877   0.5416   0.877
Ce191     Ce     0.877   0.4584   0.877
Er192     Er     0.826   0.5   0.826
S193     S     0.7672   0.5   0.7672
Ti194     Ti     0.8776   0.6248   0.8776
V195     V     0.9079   0.6968   0.8491
V196     V     0.8491   0.6968   0.9079
H197     H     0.9584   0.8038   0.745
H198     H     0.9584   0.745   0.8038
H199     H     0.0416   0.745   0.8038
H200     H     0.0416   0.8038   0.745
Ti201     Ti     0.1248   0.6224   0.6224
V202     V     0.1968   0.6509   0.5921
V203     V     0.1968   0.5921   0.6509
Ce204     Ce     0.9584   0.623   0.623
Ce205     Ce     0.0416   0.623   0.623
Er206     Er     0.0   0.674   0.674
S207     S     0.0   0.7328   0.7328
Ti208     Ti     0.8752   0.6224   0.6224
V209     V     0.8032   0.5921   0.6509
V210     V     0.8032   0.6509   0.5921
H211     H     0.8038   0.9584   0.745
H212     H     0.745   0.9584   0.8038
H213     H     0.745   0.0416   0.8038
H214     H     0.8038   0.0416   0.745
Ti215     Ti     0.6224   0.8752   0.6224
V216     V     0.6509   0.8032   0.5921
V217     V     0.5921   0.8032   0.6509
Ce218     Ce     0.623   0.9584   0.623
Ce219     Ce     0.623   0.0416   0.623
Er220     Er     0.674   0.0   0.674
S221     S     0.7328   0.0   0.7328
Ti222     Ti     0.6224   0.1248   0.6224
V223     V     0.5921   0.1968   0.6509
V224     V     0.6509   0.1968   0.5921
H225     H     0.755   0.6962   0.5416
H226     H     0.6962   0.755   0.5416
H227     H     0.6962   0.755   0.4584
H228     H     0.755   0.6962   0.4584
Ti229     Ti     0.8776   0.8776   0.6248
V230     V     0.8491   0.9079   0.6968
V231     V     0.9079   0.8491   0.6968
Ce232     Ce     0.877   0.877   0.5416
Ce233     Ce     0.877   0.877   0.4584
Er234     Er     0.826   0.826   0.5
S235     S     0.7672   0.7672   0.5
Ti236     Ti     0.8776   0.8776   0.3752
V237     V     0.9079   0.8491   0.3032
V238     V     0.8491   0.9079   0.3032
H239     H     0.245   0.4584   0.3038
H240     H     0.3038   0.4584   0.245
H241     H     0.3038   0.5416   0.245
H242     H     0.245   0.5416   0.3038
Ti243     Ti     0.1224   0.3752   0.1224
V244     V     0.0921   0.3032   0.1509
V245     V     0.1509   0.3032   0.0921
Ce246     Ce     0.123   0.5416   0.123
Ce247     Ce     0.123   0.4584   0.123
S248     S     0.2328   0.5   0.2328
Er249     Er     0.174   0.5   0.174
Ti250     Ti     0.1224   0.6248   0.1224
V251     V     0.1509   0.6968   0.0921
V252     V     0.0921   0.6968   0.1509
H253     H     0.3038   0.245   0.5416
H254     H     0.245   0.3038   0.5416
H255     H     0.3038   0.245   0.4584
H256     H     0.245   0.3038   0.4584
Ti257     Ti     0.1224   0.1224   0.6248
V258     V     0.0921   0.1509   0.6968
V259     V     0.1509   0.0921   0.6968
Ce260     Ce     0.123   0.123   0.5416
Ce261     Ce     0.123   0.123   0.4584
Er262     Er     0.174   0.174   0.5
S263     S     0.2328   0.2328   0.5
Ti264     Ti     0.1224   0.1224   0.3752
V265     V     0.1509   0.0921   0.3032
V266     V     0.0921   0.1509   0.3032
H267     H     0.9584   0.745   0.1962
H268     H     0.9584   0.8038   0.255
H269     H     0.0416   0.745   0.1962
H270     H     0.0416   0.8038   0.255
Ti271     Ti     0.1248   0.6224   0.3776
V272     V     0.1968   0.6509   0.4079
V273     V     0.1968   0.5921   0.3491
Ce274     Ce     0.9584   0.623   0.377
Ce275     Ce     0.0416   0.623   0.377
Er276     Er     0.0   0.674   0.326
S277     S     0.0   0.7328   0.2672
Ti278     Ti     0.8752   0.6224   0.3776
V279     V     0.8032   0.6509   0.4079
V280     V     0.8032   0.5921   0.3491
H281     H     0.9584   0.1962   0.745
H282     H     0.9584   0.255   0.8038
H283     H     0.0416   0.1962   0.745
H284     H     0.0416   0.255   0.8038
Ti285     Ti     0.1248   0.3776   0.6224
V286     V     0.1968   0.4079   0.6509
V287     V     0.1968   0.3491   0.5921
Ce288     Ce     0.9584   0.377   0.623
Ce289     Ce     0.0416   0.377   0.623
Er290     Er     0.0   0.326   0.674
S291     S     0.0   0.2672   0.7328
Ti292     Ti     0.8752   0.3776   0.6224
V293     V     0.8032   0.4079   0.6509
V294     V     0.8032   0.3491   0.5921
H295     H     0.6962   0.245   0.5416
H296     H     0.755   0.3038   0.5416
H297     H     0.6962   0.245   0.4584
H298     H     0.755   0.3038   0.4584
Ti299     Ti     0.8776   0.1224   0.6248
V300     V     0.8491   0.0921   0.6968
V301     V     0.9079   0.1509   0.6968
Ce302     Ce     0.877   0.123   0.5416
Ce303     Ce     0.877   0.123   0.4584
Er304     Er     0.826   0.174   0.5
S305     S     0.7672   0.2328   0.5
Ti306     Ti     0.8776   0.1224   0.3752
V307     V     0.8491   0.0921   0.3032
V308     V     0.9079   0.1509   0.3032
H309     H     0.6962   0.5416   0.245
H310     H     0.755   0.5416   0.3038
H311     H     0.6962   0.4584   0.245
H312     H     0.755   0.4584   0.3038
Ti313     Ti     0.8776   0.6248   0.1224
V314     V     0.8491   0.6968   0.0921
V315     V     0.9079   0.6968   0.1509
Ce316     Ce     0.877   0.5416   0.123
Ce317     Ce     0.877   0.4584   0.123
Er318     Er     0.826   0.5   0.174
S319     S     0.7672   0.5   0.2328
Ti320     Ti     0.8776   0.3752   0.1224
V321     V     0.8491   0.3032   0.0921
V322     V     0.9079   0.3032   0.1509
H323     H     0.9584   0.1962   0.255
H324     H     0.9584   0.255   0.1962
H325     H     0.0416   0.1962   0.255
H326     H     0.0416   0.255   0.1962
Ti327     Ti     0.8752   0.3776   0.3776
V328     V     0.8032   0.4079   0.3491
V329     V     0.8032   0.3491   0.4079
Ce330     Ce     0.9584   0.377   0.377
Ce331     Ce     0.0416   0.377   0.377
Er332     Er     0.0   0.326   0.326
S333     S     0.0   0.2672   0.2672
Ti334     Ti     0.1248   0.3776   0.3776
V335     V     0.1968   0.3491   0.4079
V336     V     0.1968   0.4079   0.3491
loop_
_geom_bond_atom_site_label_1
_geom_bond_atom_site_label_2
_geom_bond_distance
_geom_bond_site_symmetry_2
_ccdc_geom_bond_type
H1     S11    10.0   1_565     S
H1     H2    9.999   .     S
H1     H3    9.999   1_565     S
H1     V28    10.001   .     S
H2     S11    10.0   1_565     S
H2     H4    9.999   1_565     S
H2     V238    10.001   .     S
H3     S11    10.0   .     S
H3     H4    9.999   .     S
H3     H1    9.999   1_545     S
H3     V76    10.001   .     S
H4     S11    10.0   .     S
H4     H2    9.999   1_545     S
H4     V307    10.001   .     S
Ti5     Ce9    10.001   .     S
Ti5     V6    10.0   .     S
Ti5     V7    10.0   .     S
V6     V7    9.999   .     S
V6     H297    10.001   .     S
V7     H73    10.001   .     S
Ce8     Er10    9.999   1_565     S
Ce8     Ce9    9.999   1_565     S
Ce8     Ti12    10.001   .     S
Ce9     Er10    9.999   .     S
Ce9     Ce8    9.999   1_545     S
Er10     Ce8    9.999   1_545     S
Er10     S11    9.999   .     S
S11     H1    10.0   1_545     S
S11     H2    10.0   1_545     S
Ti12     V13    10.0   .     S
Ti12     V14    10.0   .     S
V13     V14    9.999   .     S
V13     H227    10.001   .     S
V14     H16    10.001   .     S
H15     S25    10.0   .     S
H15     H16    9.999   .     S
H15     H17    9.999   .     S
H15     V175    10.001   .     S
H16     S25    10.0   .     S
H16     H18    9.999   .     S
H17     S25    10.0   .     S
H17     H18    9.999   .     S
H17     V90    10.001   .     S
H18     S25    10.0   .     S
H18     V42    10.001   .     S
Ti19     Ce23    10.001   .     S
Ti19     V20    10.0   .     S
Ti19     V21    10.0   .     S
V20     V21    9.999   .     S
V20     H88    10.001   .     S
V21     H29    10.001   .     S
Ce22     Er24    9.999   .     S
Ce22     Ce23    9.999   .     S
Ce22     Ti26    10.001   .     S
Ce23     Er24    9.999   .     S
Er24     S25    9.999   .     S
Ti26     V27    10.0   .     S
Ti26     V28    10.0   .     S
V27     V28    9.999   .     S
V27     H172    10.001   .     S
H29     S39    10.0   1_565     S
H29     H30    9.999   .     S
H29     H32    9.999   1_565     S
H30     S39    10.0   1_565     S
H30     H31    9.999   1_565     S
H30     V56    10.001   .     S
H31     S39    10.0   .     S
H31     H32    9.999   .     S
H31     H30    9.999   1_545     S
H31     V265    10.001   .     S
H32     S39    10.0   .     S
H32     H29    9.999   1_545     S
H32     V84    10.001   .     S
Ti33     Ce37    10.001   .     S
Ti33     V34    10.0   .     S
Ti33     V35    10.0   .     S
V34     V35    9.999   .     S
V34     H71    10.001   .     S
V35     H255    10.001   .     S
Ce36     Er38    9.999   1_565     S
Ce36     Ce37    9.999   1_565     S
Ce36     Ti40    10.001   .     S
Ce37     Er38    9.999   .     S
Ce37     Ce36    9.999   1_545     S
Er38     Ce36    9.999   1_545     S
Er38     S39    9.999   .     S
S39     H29    10.0   1_545     S
S39     H30    10.0   1_545     S
Ti40     V41    10.0   .     S
Ti40     V42    10.0   .     S
V41     V42    9.999   .     S
V41     H44    10.001   .     S
H43     S53    10.0   .     S
H43     H44    9.999   .     S
H43     H45    9.999   .     S
H43     V272    10.001   .     S
H44     S53    10.0   .     S
H44     H46    9.999   .     S
H45     S53    10.0   .     S
H45     H46    9.999   .     S
H45     V202    10.001   .     S
H46     S53    10.0   .     S
H46     V70    10.001   .     S
Ti47     Ce50    10.001   .     S
Ti47     V48    10.0   .     S
Ti47     V49    10.0   .     S
V48     V49    9.999   .     S
V48     H200    10.001   .     S
V49     H57    10.001   .     S
Ce50     Er52    9.999   .     S
Ce50     Ce51    9.999   .     S
Ce51     Er52    9.999   .     S
Ce51     Ti54    10.001   .     S
Er52     S53    9.999   .     S
Ti54     V55    10.0   .     S
Ti54     V56    10.0   .     S
V55     V56    9.999   .     S
V55     H270    10.001   .     S
H57     S67    10.0   1_565     S
H57     H58    9.999   .     S
H57     H59    9.999   1_565     S
H58     S67    10.0   1_565     S
H58     H60    9.999   1_565     S
H58     V167    10.001   .     S
H59     S67    10.0   .     S
H59     H60    9.999   .     S
H59     H57    9.999   1_545     S
H59     V259    10.001   .     S
H60     S67    10.0   .     S
H60     H58    9.999   1_545     S
H60     V132    10.001   .     S
Ti61     Ce65    10.001   .     S
Ti61     V62    10.0   .     S
Ti61     V63    10.0   .     S
V62     V63    9.999   .     S
V62     H127    10.001   .     S
V63     H253    10.001   .     S
Ce64     Er66    9.999   1_565     S
Ce64     Ce65    9.999   1_565     S
Ce64     Ti68    10.001   .     S
Ce65     Er66    9.999   .     S
Ce65     Ce64    9.999   1_545     S
Er66     Ce64    9.999   1_545     S
Er66     S67    9.999   .     S
S67     H57    10.0   1_545     S
S67     H58    10.0   1_545     S
Ti68     V69    10.0   .     S
Ti68     V70    10.0   .     S
V69     V70    9.999   .     S
V69     H156    10.001   .     S
H71     S80    10.0   .     S
H71     H72    9.999   .     S
H71     H73    9.999   .     S
H72     S80    10.0   .     S
H72     H74    9.999   .     S
H72     V119    10.001   .     S
H73     S80    10.0   .     S
H73     H74    9.999   .     S
H74     S80    10.0   .     S
H74     V147    10.001   .     S
Ti75     Ce78    10.001   .     S
Ti75     V76    10.0   .     S
Ti75     V77    10.0   .     S
V76     V77    9.999   .     S
V77     H143    10.001   .     S
Ce78     Er81    9.999   .     S
Ce78     Ce79    9.999   .     S
Ce79     Er81    9.999   .     S
Ce79     Ti82    10.001   .     S
S80     Er81    9.999   .     S
Ti82     V83    10.0   .     S
Ti82     V84    10.0   .     S
V83     V84    9.999   .     S
V83     H115    10.001   .     S
H85     S95    10.0   1_556     S
H85     H86    9.999   .     S
H85     H87    9.999   1_556     S
H85     V105    10.001   .     S
H86     S95    10.0   1_556     S
H86     H88    9.999   1_556     S
H86     V168    10.001   .     S
H87     S95    10.0   .     S
H87     H88    9.999   .     S
H87     H85    9.999   1_554     S
H87     V251    10.001   .     S
H88     S95    10.0   .     S
H88     H86    9.999   1_554     S
Ti89     Ce93    10.001   .     S
Ti89     V90    10.0   .     S
Ti89     V91    10.0   .     S
V90     V91    9.999   .     S
V91     H241    10.001   .     S
Ce92     Er94    9.999   1_556     S
Ce92     Ce93    9.999   1_556     S
Ce92     Ti96    10.001   .     S
Ce93     Er94    9.999   .     S
Ce93     Ce92    9.999   1_554     S
Er94     Ce92    9.999   1_554     S
Er94     S95    9.999   .     S
S95     H85    10.0   1_554     S
S95     H86    10.0   1_554     S
Ti96     V97    10.0   .     S
Ti96     V98    10.0   .     S
V97     V98    9.999   .     S
V97     H155    10.001   .     S
V98     H100    10.001   .     S
H99     S109    10.0   .     S
H99     H100    9.999   .     S
H99     H101    9.999   .     S
H99     V203    10.001   .     S
H100     S109    10.0   .     S
H100     H102    9.999   .     S
H101     S109    10.0   .     S
H101     H102    9.999   .     S
H101     V286    10.001   .     S
H102     S109    10.0   .     S
H102     V126    10.001   .     S
Ti103     Ce106    10.001   .     S
Ti103     V104    10.0   .     S
Ti103     V105    10.0   .     S
V104     V105    9.999   .     S
V104     H199    10.001   .     S
Ce106     Er108    9.999   .     S
Ce106     Ce107    9.999   .     S
Ce107     Er108    9.999   .     S
Ce107     Ti110    10.001   .     S
Er108     S109    9.999   .     S
Ti110     V111    10.0   .     S
Ti110     V112    10.0   .     S
V111     V112    9.999   .     S
V111     H284    10.001   .     S
V112     H113    10.001   .     S
H113     S123    10.0   1_556     S
H113     H114    9.999   .     S
H113     H116    9.999   1_556     S
H114     S123    10.0   1_556     S
H114     H115    9.999   1_556     S
H114     V133    10.001   .     S
H115     S123    10.0   .     S
H115     H116    9.999   .     S
H115     H114    9.999   1_554     S
H116     S123    10.0   .     S
H116     H113    9.999   1_554     S
H116     V245    10.001   .     S
Ti117     Ce121    10.001   .     S
Ti117     V118    10.0   .     S
Ti117     V119    10.0   .     S
V118     V119    9.999   .     S
V118     H240    10.001   .     S
Ce120     Er122    9.999   1_556     S
Ce120     Ce121    9.999   1_556     S
Ce120     Ti124    10.001   .     S
Ce121     Er122    9.999   .     S
Ce121     Ce120    9.999   1_554     S
Er122     Ce120    9.999   1_554     S
Er122     S123    9.999   .     S
S123     H113    10.0   1_554     S
S123     H114    10.0   1_554     S
Ti124     V125    10.0   .     S
Ti124     V126    10.0   .     S
V125     V126    9.999   .     S
V125     H128    10.001   .     S
H127     S137    10.0   .     S
H127     H128    9.999   .     S
H127     H129    9.999   .     S
H128     S137    10.0   .     S
H128     H130    9.999   .     S
H129     S137    10.0   .     S
H129     H130    9.999   .     S
H129     V223    10.001   .     S
H130     S137    10.0   .     S
H130     V154    10.001   .     S
Ti131     Ce135    10.001   .     S
Ti131     V132    10.0   .     S
Ti131     V133    10.0   .     S
V132     V133    9.999   .     S
Ce134     Er136    9.999   .     S
Ce134     Ce135    9.999   .     S
Ce134     Ti138    10.001   .     S
Ce135     Er136    9.999   .     S
Er136     S137    9.999   .     S
Ti138     V139    10.0   .     S
Ti138     V140    10.0   .     S
V139     V140    9.999   .     S
V139     H213    10.001   .     S
V140     H141    10.001   .     S
H141     S151    10.0   1_556     S
H141     H142    9.999   .     S
H141     H143    9.999   1_556     S
H142     S151    10.0   1_556     S
H142     H144    9.999   1_556     S
H142     V188    10.001   .     S
H143     S151    10.0   .     S
H143     H144    9.999   .     S
H143     H141    9.999   1_554     S
H144     S151    10.0   .     S
H144     H142    9.999   1_554     S
H144     V321    10.001   .     S
Ti145     Ce149    10.001   .     S
Ti145     V146    10.0   .     S
Ti145     V147    10.0   .     S
V146     V147    9.999   .     S
V146     H311    10.001   .     S
Ce148     Er150    9.999   1_556     S
Ce148     Ce149    9.999   1_556     S
Ce148     Ti152    10.001   .     S
Ce149     Er150    9.999   .     S
Ce149     Ce148    9.999   1_554     S
Er150     Ce148    9.999   1_554     S
Er150     S151    9.999   .     S
S151     H141    10.0   1_554     S
S151     H142    10.0   1_554     S
Ti152     V153    10.0   .     S
Ti152     V154    10.0   .     S
V153     V154    9.999   .     S
V153     H183    10.001   .     S
H155     S165    10.0   .     S
H155     H156    9.999   .     S
H155     H157    9.999   .     S
H156     S165    10.0   .     S
H156     H158    9.999   .     S
H157     S165    10.0   .     S
H157     H158    9.999   .     S
H157     V181    10.001   .     S
H158     S165    10.0   .     S
H158     V217    10.001   .     S
Ti159     Ce162    10.001   .     S
Ti159     V160    10.0   .     S
Ti159     V161    10.0   .     S
V160     V161    9.999   .     S
V160     H169    10.001   .     S
V161     H212    10.001   .     S
Ce162     Er164    9.999   .     S
Ce162     Ce163    9.999   .     S
Ce163     Er164    9.999   .     S
Ce163     Ti166    10.001   .     S
Er164     S165    9.999   .     S
Ti166     V167    10.0   .     S
Ti166     V168    10.0   .     S
V167     V168    9.999   .     S
H169     S179    10.0   1_556     S
H169     H170    9.999   .     S
H169     H172    9.999   1_556     S
H170     S179    10.0   1_556     S
H170     H171    9.999   1_556     S
H170     V196    10.001   .     S
H171     S179    10.0   .     S
H171     H172    9.999   .     S
H171     H170    9.999   1_554     S
H171     V314    10.001   .     S
H172     S179    10.0   .     S
H172     H169    9.999   1_554     S
Ti173     Ce177    10.001   .     S
Ti173     V174    10.0   .     S
Ti173     V175    10.0   .     S
V174     V175    9.999   .     S
V174     H309    10.001   .     S
Ce176     Er178    9.999   1_556     S
Ce176     Ce177    9.999   1_556     S
Ce176     Ti180    10.001   .     S
Ce177     Er178    9.999   .     S
Ce177     Ce176    9.999   1_554     S
Er178     Ce176    9.999   1_554     S
Er178     S179    9.999   .     S
S179     H169    10.0   1_554     S
S179     H170    10.0   1_554     S
Ti180     V181    10.0   .     S
Ti180     V182    10.0   .     S
V181     V182    9.999   .     S
V182     H185    10.001   .     S
H183     S193    10.0   .     S
H183     H184    9.999   .     S
H183     H185    9.999   .     S
H184     S193    10.0   .     S
H184     H186    9.999   .     S
H184     V293    10.001   .     S
H185     S193    10.0   .     S
H185     H186    9.999   .     S
H186     S193    10.0   .     S
H186     V209    10.001   .     S
Ti187     Ce191    10.001   .     S
Ti187     V188    10.0   .     S
Ti187     V189    10.0   .     S
V188     V189    9.999   .     S
V189     H282    10.001   .     S
Ce190     Er192    9.999   .     S
Ce190     Ce191    9.999   .     S
Ce190     Ti194    10.001   .     S
Ce191     Er192    9.999   .     S
Er192     S193    9.999   .     S
Ti194     V195    10.0   .     S
Ti194     V196    10.0   .     S
V195     V196    9.999   .     S
V195     H198    10.001   .     S
H197     S207    10.0   1_655     S
H197     H198    9.999   .     S
H197     H200    9.999   1_655     S
H197     V231    10.001   .     S
H198     S207    10.0   1_655     S
H198     H199    9.999   1_655     S
H199     S207    10.0   .     S
H199     H200    9.999   .     S
H199     H198    9.999   1_455     S
H200     S207    10.0   .     S
H200     H197    9.999   1_455     S
Ti201     Ce205    10.001   .     S
Ti201     V202    10.0   .     S
Ti201     V203    10.0   .     S
V202     V203    9.999   .     S
Ce204     Er206    9.999   1_655     S
Ce204     Ce205    9.999   1_655     S
Ce204     Ti208    10.001   .     S
Ce205     Er206    9.999   .     S
Ce205     Ce204    9.999   1_455     S
Er206     Ce204    9.999   1_455     S
Er206     S207    9.999   .     S
S207     H197    10.0   1_455     S
S207     H198    10.0   1_455     S
Ti208     V209    10.0   .     S
Ti208     V210    10.0   .     S
V209     V210    9.999   .     S
V210     H225    10.001   .     S
H211     S221    10.0   1_565     S
H211     H212    9.999   .     S
H211     H214    9.999   1_565     S
H211     V230    10.001   .     S
H212     S221    10.0   1_565     S
H212     H213    9.999   1_565     S
H213     S221    10.0   .     S
H213     H214    9.999   .     S
H213     H212    9.999   1_545     S
H214     S221    10.0   .     S
H214     H211    9.999   1_545     S
H214     V300    10.001   .     S
Ti215     Ce218    10.001   .     S
Ti215     V216    10.0   .     S
Ti215     V217    10.0   .     S
V216     V217    9.999   .     S
V216     H226    10.001   .     S
Ce218     Er220    9.999   1_565     S
Ce218     Ce219    9.999   1_565     S
Ce219     Er220    9.999   .     S
Ce219     Ce218    9.999   1_545     S
Ce219     Ti222    10.001   .     S
Er220     Ce218    9.999   1_545     S
Er220     S221    9.999   .     S
S221     H211    10.0   1_545     S
S221     H212    10.0   1_545     S
Ti222     V223    10.0   .     S
Ti222     V224    10.0   .     S
V223     V224    9.999   .     S
V224     H295    10.001   .     S
H225     S235    10.0   .     S
H225     H226    9.999   .     S
H225     H228    9.999   .     S
H226     S235    10.0   .     S
H226     H227    9.999   .     S
H227     S235    10.0   .     S
H227     H228    9.999   .     S
H228     S235    10.0   .     S
H228     V279    10.001   .     S
Ti229     Ce232    10.001   .     S
Ti229     V230    10.0   .     S
Ti229     V231    10.0   .     S
V230     V231    9.999   .     S
Ce232     Er234    9.999   .     S
Ce232     Ce233    9.999   .     S
Ce233     Er234    9.999   .     S
Ce233     Ti236    10.001   .     S
Er234     S235    9.999   .     S
Ti236     V237    10.0   .     S
Ti236     V238    10.0   .     S
V237     V238    9.999   .     S
V237     H268    10.001   .     S
H239     S248    10.0   .     S
H239     H240    9.999   .     S
H239     H242    9.999   .     S
H239     V336    10.001   .     S
H240     S248    10.0   .     S
H240     H241    9.999   .     S
H241     S248    10.0   .     S
H241     H242    9.999   .     S
H242     S248    10.0   .     S
H242     V273    10.001   .     S
Ti243     Ce247    10.001   .     S
Ti243     V244    10.0   .     S
Ti243     V245    10.0   .     S
V244     V245    9.999   .     S
V244     H326    10.001   .     S
Ce246     Er249    9.999   .     S
Ce246     Ce247    9.999   .     S
Ce246     Ti250    10.001   .     S
Ce247     Er249    9.999   .     S
S248     Er249    9.999   .     S
Ti250     V251    10.0   .     S
Ti250     V252    10.0   .     S
V251     V252    9.999   .     S
V252     H269    10.001   .     S
H253     S263    10.0   .     S
H253     H254    9.999   .     S
H253     H255    9.999   .     S
H254     S263    10.0   .     S
H254     H256    9.999   .     S
H254     V287    10.001   .     S
H255     S263    10.0   .     S
H255     H256    9.999   .     S
H256     S263    10.0   .     S
H256     V335    10.001   .     S
Ti257     Ce260    10.001   .     S
Ti257     V258    10.0   .     S
Ti257     V259    10.0   .     S
V258     V259    9.999   .     S
V258     H283    10.001   .     S
Ce260     Er262    9.999   .     S
Ce260     Ce261    9.999   .     S
Ce261     Er262    9.999   .     S
Ce261     Ti264    10.001   .     S
Er262     S263    9.999   .     S
Ti264     V265    10.0   .     S
Ti264     V266    10.0   .     S
V265     V266    9.999   .     S
V266     H325    10.001   .     S
H267     S277    10.0   1_655     S
H267     H268    9.999   .     S
H267     H269    9.999   1_655     S
H267     V315    10.001   .     S
H268     S277    10.0   1_655     S
H268     H270    9.999   1_655     S
H269     S277    10.0   .     S
H269     H270    9.999   .     S
H269     H267    9.999   1_455     S
H270     S277    10.0   .     S
H270     H268    9.999   1_455     S
Ti271     Ce275    10.001   .     S
Ti271     V272    10.0   .     S
Ti271     V273    10.0   .     S
V272     V273    9.999   .     S
Ce274     Er276    9.999   1_655     S
Ce274     Ce275    9.999   1_655     S
Ce274     Ti278    10.001   .     S
Ce275     Er276    9.999   .     S
Ce275     Ce274    9.999   1_455     S
Er276     Ce274    9.999   1_455     S
Er276     S277    9.999   .     S
S277     H267    10.0   1_455     S
S277     H268    10.0   1_455     S
Ti278     V279    10.0   .     S
Ti278     V280    10.0   .     S
V279     V280    9.999   .     S
V280     H310    10.001   .     S
H281     S291    10.0   1_655     S
H281     H282    9.999   .     S
H281     H283    9.999   1_655     S
H281     V301    10.001   .     S
H282     S291    10.0   1_655     S
H282     H284    9.999   1_655     S
H283     S291    10.0   .     S
H283     H284    9.999   .     S
H283     H281    9.999   1_455     S
H284     S291    10.0   .     S
H284     H282    9.999   1_455     S
Ti285     Ce289    10.001   .     S
Ti285     V286    10.0   .     S
Ti285     V287    10.0   .     S
V286     V287    9.999   .     S
Ce288     Er290    9.999   1_655     S
Ce288     Ce289    9.999   1_655     S
Ce288     Ti292    10.001   .     S
Ce289     Er290    9.999   .     S
Ce289     Ce288    9.999   1_455     S
Er290     Ce288    9.999   1_455     S
Er290     S291    9.999   .     S
S291     H281    10.0   1_455     S
S291     H282    10.0   1_455     S
Ti292     V293    10.0   .     S
Ti292     V294    10.0   .     S
V293     V294    9.999   .     S
V294     H296    10.001   .     S
H295     S305    10.0   .     S
H295     H296    9.999   .     S
H295     H297    9.999   .     S
H296     S305    10.0   .     S
H296     H298    9.999   .     S
H297     S305    10.0   .     S
H297     H298    9.999   .     S
H298     S305    10.0   .     S
H298     V329    10.001   .     S
Ti299     Ce302    10.001   .     S
Ti299     V300    10.0   .     S
Ti299     V301    10.0   .     S
V300     V301    9.999   .     S
Ce302     Er304    9.999   .     S
Ce302     Ce303    9.999   .     S
Ce303     Er304    9.999   .     S
Ce303     Ti306    10.001   .     S
Er304     S305    9.999   .     S
Ti306     V307    10.0   .     S
Ti306     V308    10.0   .     S
V307     V308    9.999   .     S
V308     H323    10.001   .     S
H309     S319    10.0   .     S
H309     H310    9.999   .     S
H309     H311    9.999   .     S
H310     S319    10.0   .     S
H310     H312    9.999   .     S
H311     S319    10.0   .     S
H311     H312    9.999   .     S
H312     S319    10.0   .     S
H312     V328    10.001   .     S
Ti313     Ce316    10.001   .     S
Ti313     V314    10.0   .     S
Ti313     V315    10.0   .     S
V314     V315    9.999   .     S
Ce316     Er318    9.999   .     S
Ce316     Ce317    9.999   .     S
Ce317     Er318    9.999   .     S
Ce317     Ti320    10.001   .     S
Er318     S319    9.999   .     S
Ti320     V321    10.0   .     S
Ti320     V322    10.0   .     S
V321     V322    9.999   .     S
V322     H324    10.001   .     S
H323     S333    10.0   1_655     S
H323     H324    9.999   .     S
H323     H325    9.999   1_655     S
H324     S333    10.0   1_655     S
H324     H326    9.999   1_655     S
H325     S333    10.0   .     S
H325     H326    9.999   .     S
H325     H323    9.999   1_455     S
H326     S333    10.0   .     S
H326     H324    9.999   1_455     S
Ti327     Ce330    10.001   .     S
Ti327     V328    10.0   .     S
Ti327     V329    10.0   .     S
V328     V329    9.999   .     S
Ce330     Er332    9.999   1_655     S
Ce330     Ce331    9.999   1_655     S
Ce331     Er332    9.999   .     S
Ce331     Ce330    9.999   1_455     S
Ce331     Ti334    10.001   .     S
Er332     Ce330    9.999   1_455     S
Er332     S333    9.999   .     S
S333     H323    10.0   1_455     S
S333     H324    10.0   1_455     S
Ti334     V335    10.0   .     S
Ti334     V336    10.0   .     S
V335     V336    9.999   .     S
