data_qnc
_audit_creation_date              2020-02-02
_audit_creation_method            'Pymatgen'
_symmetry_space_group_name_H-M    'P1'
_symmetry_Int_Tables_number       1
loop_
_symmetry_equiv_pos_as_xyz
  x,y,z
_cell_length_a                    34.1421
_cell_length_b                    34.1421
_cell_length_c                    34.1421
_cell_angle_alpha                 90.0
_cell_angle_beta                 90.0
_cell_angle_gamma                 90.0
loop_
_atom_site_label
_atom_site_type_symbol
_atom_site_fract_x
_atom_site_fract_y
_atom_site_fract_z
V1     V     0.5   0.5   0.0
V2     V     0.5   0.0   0.5
V3     V     0.0   0.5   0.5
Ti4     Ti     0.5   0.8536   0.1464
Ti5     Ti     0.5   0.1464   0.1464
Ti6     Ti     0.1464   0.5   0.8536
Ti7     Ti     0.1464   0.5   0.1464
Ti8     Ti     0.8536   0.5   0.1464
Ti9     Ti     0.5   0.8536   0.8536
Ti10     Ti     0.8536   0.5   0.8536
Ti11     Ti     0.5   0.1464   0.8536
Ti12     Ti     0.8536   0.8536   0.5
Ti13     Ti     0.8536   0.1464   0.5
Ti14     Ti     0.1464   0.1464   0.5
Ti15     Ti     0.1464   0.8536   0.5
Er16     Er     0.0   0.7071   0.7071
Er17     Er     0.2929   0.0   0.7071
Er18     Er     0.0   0.2929   0.7071
Er19     Er     0.7071   0.0   0.7071
Er20     Er     0.7071   0.2929   0.0
Er21     Er     0.7071   0.7071   0.0
Er22     Er     0.0   0.7071   0.2929
Er23     Er     0.2929   0.7071   0.0
Er24     Er     0.7071   0.0   0.2929
Er25     Er     0.0   0.2929   0.2929
Er26     Er     0.2929   0.0   0.2929
Er27     Er     0.2929   0.2929   0.0
loop_
_geom_bond_atom_site_label_1
_geom_bond_atom_site_label_2
_geom_bond_distance
_geom_bond_site_symmetry_2
_ccdc_geom_bond_type
V1     Er27    10.0   .     S
V1     Er23    10.0   .     S
V1     Er20    10.0   .     S
V1     Er21    10.0   .     S
V2     Er26    10.0   .     S
V2     Er24    10.0   .     S
V2     Er17    10.0   .     S
V2     Er19    10.0   .     S
V3     Er25    10.0   .     S
V3     Er22    10.0   .     S
V3     Er18    10.0   .     S
V3     Er16    10.0   .     S
Ti4     Er26    10.0   1_565     S
Ti4     Er24    10.0   1_565     S
Ti4     Er23    10.0   .     S
Ti4     Er21    10.0   .     S
Ti5     Er26    10.0   .     S
Ti5     Er27    10.0   .     S
Ti5     Er20    10.0   .     S
Ti5     Er24    10.0   .     S
Ti6     Er27    10.0   1_556     S
Ti6     Er23    10.0   1_556     S
Ti6     Er18    10.0   .     S
Ti6     Er16    10.0   .     S
Ti7     Er27    10.0   .     S
Ti7     Er25    10.0   .     S
Ti7     Er22    10.0   .     S
Ti7     Er23    10.0   .     S
Ti8     Er25    10.0   1_655     S
Ti8     Er22    10.0   1_655     S
Ti8     Er20    10.0   .     S
Ti8     Er21    10.0   .     S
Ti9     Er17    10.0   1_565     S
Ti9     Er23    10.0   1_556     S
Ti9     Er21    10.0   1_556     S
Ti9     Er19    10.0   1_565     S
Ti10     Er20    10.0   1_556     S
Ti10     Er18    10.0   1_655     S
Ti10     Er16    10.0   1_655     S
Ti10     Er21    10.0   1_556     S
Ti11     Er27    10.0   1_556     S
Ti11     Er17    10.0   .     S
Ti11     Er20    10.0   1_556     S
Ti11     Er19    10.0   .     S
Ti12     Er22    10.0   1_655     S
Ti12     Er24    10.0   1_565     S
Ti12     Er19    10.0   1_565     S
Ti12     Er16    10.0   1_655     S
Ti13     Er25    10.0   1_655     S
Ti13     Er18    10.0   1_655     S
Ti13     Er24    10.0   .     S
Ti13     Er19    10.0   .     S
Ti14     Er25    10.0   .     S
Ti14     Er26    10.0   .     S
Ti14     Er17    10.0   .     S
Ti14     Er18    10.0   .     S
Ti15     Er26    10.0   1_565     S
Ti15     Er17    10.0   1_565     S
Ti15     Er22    10.0   .     S
Ti15     Er16    10.0   .     S
Er16     Ti10    10.0   1_455     S
Er16     Ti12    10.0   1_455     S
Er17     Ti9    10.0   1_545     S
Er17     Ti15    10.0   1_545     S
Er18     Ti10    10.0   1_455     S
Er18     Ti13    10.0   1_455     S
Er19     Ti9    10.0   1_545     S
Er19     Ti12    10.0   1_545     S
Er20     Ti10    10.0   1_554     S
Er20     Ti11    10.0   1_554     S
Er21     Ti9    10.0   1_554     S
Er21     Ti10    10.0   1_554     S
Er22     Ti8    10.0   1_455     S
Er22     Ti12    10.0   1_455     S
Er23     Ti6    10.0   1_554     S
Er23     Ti9    10.0   1_554     S
Er24     Ti4    10.0   1_545     S
Er24     Ti12    10.0   1_545     S
Er25     Ti8    10.0   1_455     S
Er25     Ti13    10.0   1_455     S
Er26     Ti4    10.0   1_545     S
Er26     Ti15    10.0   1_545     S
Er27     Ti6    10.0   1_554     S
Er27     Ti11    10.0   1_554     S
