data_rho
_audit_creation_date              2020-02-02
_audit_creation_method            'Pymatgen'
_symmetry_space_group_name_H-M    'P1'
_symmetry_Int_Tables_number       1
loop_
_symmetry_equiv_pos_as_xyz
  x,y,z
_cell_length_a                    48.2843
_cell_length_b                    48.2843
_cell_length_c                    48.2843
_cell_angle_alpha                 90.0
_cell_angle_beta                 90.0
_cell_angle_gamma                 90.0
loop_
_atom_site_label
_atom_site_type_symbol
_atom_site_fract_x
_atom_site_fract_y
_atom_site_fract_z
V1     V     0.6036   0.75   0.8964
V2     V     0.6036   0.75   0.1036
V3     V     0.3965   0.75   0.8964
V4     V     0.3965   0.75   0.1036
V5     V     0.75   0.3965   0.8964
V6     V     0.75   0.3965   0.1036
V7     V     0.75   0.6036   0.8964
V8     V     0.75   0.6036   0.1036
V9     V     0.6036   0.8964   0.25
V10     V     0.6036   0.1036   0.25
V11     V     0.3965   0.1036   0.25
V12     V     0.3965   0.8964   0.25
V13     V     0.3965   0.25   0.8964
V14     V     0.3965   0.25   0.1036
V15     V     0.6036   0.25   0.8964
V16     V     0.6036   0.25   0.1036
V17     V     0.1036   0.3965   0.25
V18     V     0.8964   0.3965   0.25
V19     V     0.8964   0.6036   0.25
V20     V     0.1036   0.6036   0.25
V21     V     0.25   0.6036   0.8964
V22     V     0.25   0.6036   0.1036
V23     V     0.25   0.3965   0.1036
V24     V     0.25   0.3965   0.8964
V25     V     0.8964   0.75   0.6036
V26     V     0.1036   0.75   0.6036
V27     V     0.8964   0.75   0.3965
V28     V     0.1036   0.75   0.3965
V29     V     0.1036   0.3965   0.75
V30     V     0.8964   0.3965   0.75
V31     V     0.8964   0.6036   0.75
V32     V     0.1036   0.6036   0.75
V33     V     0.25   0.1036   0.3965
V34     V     0.25   0.8964   0.3965
V35     V     0.25   0.8964   0.6036
V36     V     0.25   0.1036   0.6036
V37     V     0.1036   0.25   0.3965
V38     V     0.8964   0.25   0.3965
V39     V     0.8964   0.25   0.6036
V40     V     0.1036   0.25   0.6036
V41     V     0.75   0.8964   0.6036
V42     V     0.75   0.1036   0.6036
V43     V     0.75   0.1036   0.3965
V44     V     0.75   0.8964   0.3965
V45     V     0.3965   0.8964   0.75
V46     V     0.3965   0.1036   0.75
V47     V     0.6036   0.8964   0.75
V48     V     0.6036   0.1036   0.75
loop_
_geom_bond_atom_site_label_1
_geom_bond_atom_site_label_2
_geom_bond_distance
_geom_bond_site_symmetry_2
_ccdc_geom_bond_type
V1     V2    10.0   1_556     S
V1     V3    10.0   .     S
V1     V7    10.0   .     S
V1     V47    10.0   .     S
V2     V1    10.0   1_554     S
V2     V4    10.0   .     S
V2     V8    10.0   .     S
V2     V9    10.0   .     S
V3     V4    10.0   1_556     S
V3     V21    10.0   .     S
V3     V45    10.0   .     S
V4     V3    10.0   1_554     S
V4     V12    10.0   .     S
V4     V22    10.0   .     S
V5     V7    10.0   .     S
V5     V6    10.0   1_556     S
V5     V15    10.0   .     S
V5     V30    10.0   .     S
V6     V5    10.0   1_554     S
V6     V8    10.0   .     S
V6     V18    10.0   .     S
V6     V16    10.0   .     S
V7     V8    10.0   1_556     S
V7     V31    10.0   .     S
V8     V7    10.0   1_554     S
V8     V19    10.0   .     S
V9     V10    10.0   1_565     S
V9     V12    10.0   .     S
V9     V44    10.0   .     S
V10     V9    10.0   1_545     S
V10     V11    10.0   .     S
V10     V43    10.0   .     S
V10     V16    10.0   .     S
V11     V12    10.0   1_545     S
V11     V14    10.0   .     S
V11     V33    10.0   .     S
V12     V11    10.0   1_565     S
V12     V34    10.0   .     S
V13     V15    10.0   .     S
V13     V14    10.0   1_556     S
V13     V46    10.0   .     S
V13     V24    10.0   .     S
V14     V13    10.0   1_554     S
V14     V16    10.0   .     S
V14     V23    10.0   .     S
V15     V16    10.0   1_556     S
V15     V48    10.0   .     S
V16     V15    10.0   1_554     S
V17     V20    10.0   .     S
V17     V18    10.0   1_455     S
V17     V23    10.0   .     S
V17     V37    10.0   .     S
V18     V17    10.0   1_655     S
V18     V19    10.0   .     S
V18     V38    10.0   .     S
V19     V20    10.0   1_655     S
V19     V27    10.0   .     S
V20     V19    10.0   1_455     S
V20     V28    10.0   .     S
V20     V22    10.0   .     S
V21     V22    10.0   1_556     S
V21     V24    10.0   .     S
V21     V32    10.0   .     S
V22     V21    10.0   1_554     S
V22     V23    10.0   .     S
V23     V24    10.0   1_554     S
V24     V23    10.0   1_556     S
V24     V29    10.0   .     S
V25     V26    10.0   1_655     S
V25     V27    10.0   .     S
V25     V31    10.0   .     S
V25     V41    10.0   .     S
V26     V25    10.0   1_455     S
V26     V28    10.0   .     S
V26     V32    10.0   .     S
V26     V35    10.0   .     S
V27     V28    10.0   1_655     S
V27     V44    10.0   .     S
V28     V27    10.0   1_455     S
V28     V34    10.0   .     S
V29     V32    10.0   .     S
V29     V30    10.0   1_455     S
V29     V40    10.0   .     S
V30     V29    10.0   1_655     S
V30     V31    10.0   .     S
V30     V39    10.0   .     S
V31     V32    10.0   1_655     S
V32     V31    10.0   1_455     S
V33     V36    10.0   .     S
V33     V34    10.0   1_545     S
V33     V37    10.0   .     S
V34     V33    10.0   1_565     S
V34     V35    10.0   .     S
V35     V36    10.0   1_565     S
V35     V45    10.0   .     S
V36     V35    10.0   1_545     S
V36     V46    10.0   .     S
V36     V40    10.0   .     S
V37     V40    10.0   .     S
V37     V38    10.0   1_455     S
V38     V37    10.0   1_655     S
V38     V39    10.0   .     S
V38     V43    10.0   .     S
V39     V40    10.0   1_655     S
V39     V42    10.0   .     S
V40     V39    10.0   1_455     S
V41     V42    10.0   1_565     S
V41     V44    10.0   .     S
V41     V47    10.0   .     S
V42     V41    10.0   1_545     S
V42     V43    10.0   .     S
V42     V48    10.0   .     S
V43     V44    10.0   1_545     S
V44     V43    10.0   1_565     S
V45     V47    10.0   .     S
V45     V46    10.0   1_565     S
V46     V45    10.0   1_545     S
V46     V48    10.0   .     S
V47     V48    10.0   1_565     S
V48     V47    10.0   1_545     S
