data_she
_audit_creation_date              2020-02-02
_audit_creation_method            'Pymatgen'
_symmetry_space_group_name_H-M    'P1'
_symmetry_Int_Tables_number       1
loop_
_symmetry_equiv_pos_as_xyz
  x,y,z
_cell_length_a                    28.2843
_cell_length_b                    28.2843
_cell_length_c                    28.2843
_cell_angle_alpha                 90.0
_cell_angle_beta                 90.0
_cell_angle_gamma                 90.0
loop_
_atom_site_label
_atom_site_type_symbol
_atom_site_fract_x
_atom_site_fract_y
_atom_site_fract_z
V1     V     0.0   0.25   0.5
Er2     Er     0.25   0.25   0.25
Er3     Er     0.75   0.25   0.75
V4     V     0.5   0.0   0.25
Er5     Er     0.75   0.75   0.25
V6     V     0.0   0.75   0.5
Er7     Er     0.25   0.75   0.75
V8     V     0.5   0.0   0.75
V9     V     0.25   0.5   0.0
V10     V     0.75   0.5   0.0
Er11     Er     0.75   0.75   0.75
V12     V     0.75   0.0   0.5
Er13     Er     0.75   0.25   0.25
V14     V     0.0   0.5   0.25
Er15     Er     0.25   0.75   0.25
V16     V     0.25   0.0   0.5
Er17     Er     0.25   0.25   0.75
V18     V     0.0   0.5   0.75
V19     V     0.5   0.25   0.0
V20     V     0.5   0.75   0.0
loop_
_geom_bond_atom_site_label_1
_geom_bond_atom_site_label_2
_geom_bond_distance
_geom_bond_site_symmetry_2
_ccdc_geom_bond_type
V1     Er2    10.0   .     S
V1     Er3    10.0   1_455     S
V1     Er17    10.0   .     S
V1     Er13    10.0   1_455     S
Er2     V4    10.0   .     S
Er2     V9    10.0   .     S
Er2     V16    10.0   .     S
Er2     V14    10.0   .     S
Er2     V19    10.0   .     S
Er3     V1    10.0   1_655     S
Er3     V8    10.0   .     S
Er3     V10    10.0   1_556     S
Er3     V12    10.0   .     S
Er3     V18    10.0   1_655     S
Er3     V19    10.0   1_556     S
V4     Er5    10.0   1_545     S
V4     Er13    10.0   .     S
V4     Er15    10.0   1_545     S
Er5     V4    10.0   1_565     S
Er5     V6    10.0   1_655     S
Er5     V10    10.0   .     S
Er5     V12    10.0   1_565     S
Er5     V14    10.0   1_655     S
Er5     V20    10.0   .     S
V6     Er5    10.0   1_455     S
V6     Er7    10.0   .     S
V6     Er11    10.0   1_455     S
V6     Er15    10.0   .     S
Er7     V8    10.0   1_565     S
Er7     V9    10.0   1_556     S
Er7     V16    10.0   1_565     S
Er7     V18    10.0   .     S
Er7     V20    10.0   1_556     S
V8     Er7    10.0   1_545     S
V8     Er11    10.0   1_545     S
V8     Er17    10.0   .     S
V9     Er7    10.0   1_554     S
V9     Er15    10.0   .     S
V9     Er17    10.0   1_554     S
V10     Er3    10.0   1_554     S
V10     Er11    10.0   1_554     S
V10     Er13    10.0   .     S
Er11     V6    10.0   1_655     S
Er11     V12    10.0   1_565     S
Er11     V18    10.0   1_655     S
Er11     V20    10.0   1_556     S
Er11     V8    10.0   1_565     S
Er11     V10    10.0   1_556     S
V12     Er11    10.0   1_545     S
V12     Er13    10.0   .     S
V12     Er5    10.0   1_545     S
Er13     V14    10.0   1_655     S
Er13     V19    10.0   .     S
Er13     V1    10.0   1_655     S
V14     Er13    10.0   1_455     S
V14     Er15    10.0   .     S
V14     Er5    10.0   1_455     S
Er15     V16    10.0   1_565     S
Er15     V20    10.0   .     S
Er15     V4    10.0   1_565     S
V16     Er15    10.0   1_545     S
V16     Er17    10.0   .     S
V16     Er7    10.0   1_545     S
Er17     V18    10.0   .     S
Er17     V19    10.0   1_556     S
Er17     V9    10.0   1_556     S
V18     Er11    10.0   1_455     S
V18     Er3    10.0   1_455     S
V19     Er17    10.0   1_554     S
V19     Er3    10.0   1_554     S
V20     Er11    10.0   1_554     S
V20     Er7    10.0   1_554     S
