data_shea
_audit_creation_date              2020-02-02
_audit_creation_method            'Pymatgen'
_symmetry_space_group_name_H-M    'P1'
_symmetry_Int_Tables_number       1
loop_
_symmetry_equiv_pos_as_xyz
  x,y,z
_cell_length_a                    76.5686
_cell_length_b                    76.5686
_cell_length_c                    76.5686
_cell_angle_alpha                 90.0
_cell_angle_beta                 90.0
_cell_angle_gamma                 90.0
loop_
_atom_site_label
_atom_site_type_symbol
_atom_site_fract_x
_atom_site_fract_y
_atom_site_fract_z
V1     V     0.8424   0.75   0.6577
V2     V     0.8424   0.6577   0.75
V3     V     0.75   0.6577   0.8424
V4     V     0.6577   0.75   0.8424
V5     V     0.6577   0.8424   0.75
V6     V     0.75   0.8424   0.6577
Er7     Er     0.4347   0.9347   0.75
Er8     Er     0.5653   0.9347   0.75
Er9     Er     0.4347   0.0653   0.75
Er10     Er     0.5653   0.0653   0.75
Er11     Er     0.4347   0.75   0.0653
Er12     Er     0.5653   0.75   0.0653
Er13     Er     0.5653   0.75   0.9347
Er14     Er     0.4347   0.75   0.9347
V15     V     0.3424   0.8424   0.75
V16     V     0.3424   0.75   0.8424
V17     V     0.25   0.6577   0.8424
V18     V     0.1577   0.6577   0.75
V19     V     0.1577   0.75   0.6577
V20     V     0.25   0.8424   0.6577
Er21     Er     0.75   0.4347   0.9347
Er22     Er     0.75   0.5653   0.9347
Er23     Er     0.75   0.4347   0.0653
Er24     Er     0.75   0.5653   0.0653
Er25     Er     0.0653   0.4347   0.75
Er26     Er     0.0653   0.5653   0.75
Er27     Er     0.9347   0.5653   0.75
Er28     Er     0.9347   0.4347   0.75
V29     V     0.75   0.3424   0.8424
V30     V     0.8424   0.3424   0.75
V31     V     0.6577   0.25   0.8424
V32     V     0.6577   0.1577   0.75
V33     V     0.75   0.1577   0.6577
V34     V     0.8424   0.25   0.6577
Er35     Er     0.4347   0.25   0.9347
Er36     Er     0.5653   0.25   0.9347
Er37     Er     0.4347   0.25   0.0653
Er38     Er     0.5653   0.25   0.0653
Er39     Er     0.25   0.4347   0.0653
Er40     Er     0.25   0.5653   0.0653
Er41     Er     0.25   0.5653   0.9347
Er42     Er     0.25   0.4347   0.9347
V43     V     0.1577   0.25   0.6577
V44     V     0.25   0.1577   0.6577
V45     V     0.3424   0.1577   0.75
V46     V     0.1577   0.3424   0.75
V47     V     0.3424   0.25   0.8424
V48     V     0.25   0.3424   0.8424
Er49     Er     0.25   0.9347   0.4347
Er50     Er     0.25   0.9347   0.5653
Er51     Er     0.25   0.0653   0.4347
Er52     Er     0.25   0.0653   0.5653
Er53     Er     0.4347   0.0653   0.25
Er54     Er     0.5653   0.0653   0.25
Er55     Er     0.5653   0.9347   0.25
Er56     Er     0.4347   0.9347   0.25
V57     V     0.25   0.6577   0.1577
V58     V     0.1577   0.6577   0.25
V59     V     0.1577   0.75   0.3424
V60     V     0.3424   0.75   0.1577
V61     V     0.25   0.8424   0.3424
V62     V     0.3424   0.8424   0.25
Er63     Er     0.9347   0.75   0.4347
Er64     Er     0.9347   0.75   0.5653
Er65     Er     0.0653   0.75   0.4347
Er66     Er     0.0653   0.75   0.5653
Er67     Er     0.75   0.0653   0.4347
Er68     Er     0.75   0.0653   0.5653
Er69     Er     0.75   0.9347   0.5653
Er70     Er     0.75   0.9347   0.4347
V71     V     0.8424   0.75   0.3424
V72     V     0.75   0.8424   0.3424
V73     V     0.6577   0.8424   0.25
V74     V     0.6577   0.75   0.1577
V75     V     0.75   0.6577   0.1577
V76     V     0.8424   0.6577   0.25
V77     V     0.3424   0.25   0.1577
V78     V     0.3424   0.1577   0.25
V79     V     0.25   0.3424   0.1577
V80     V     0.1577   0.3424   0.25
V81     V     0.25   0.1577   0.3424
V82     V     0.1577   0.25   0.3424
Er83     Er     0.9347   0.4347   0.25
Er84     Er     0.9347   0.5653   0.25
Er85     Er     0.0653   0.4347   0.25
Er86     Er     0.0653   0.5653   0.25
Er87     Er     0.0653   0.25   0.4347
Er88     Er     0.0653   0.25   0.5653
Er89     Er     0.9347   0.25   0.4347
Er90     Er     0.9347   0.25   0.5653
V91     V     0.6577   0.25   0.1577
V92     V     0.6577   0.1577   0.25
V93     V     0.75   0.3424   0.1577
V94     V     0.75   0.1577   0.3424
V95     V     0.8424   0.3424   0.25
V96     V     0.8424   0.25   0.3424
loop_
_geom_bond_atom_site_label_1
_geom_bond_atom_site_label_2
_geom_bond_distance
_geom_bond_site_symmetry_2
_ccdc_geom_bond_type
V1     Er64    10.0   .     S
V1     V2    10.0   .     S
V1     V6    10.0   .     S
V2     Er27    10.0   .     S
V2     V3    10.0   .     S
V3     Er22    10.0   .     S
V3     V4    10.0   .     S
V4     Er13    10.0   .     S
V4     V5    10.0   .     S
V5     Er8    10.0   .     S
V5     V6    10.0   .     S
V6     Er69    10.0   .     S
Er7     Er8    10.0   .     S
Er7     Er9    10.0   1_565     S
Er7     V15    10.0   .     S
Er8     Er10    10.0   1_565     S
Er9     Er7    10.0   1_545     S
Er9     Er10    10.0   .     S
Er9     V45    10.0   .     S
Er10     Er8    10.0   1_545     S
Er10     V32    10.0   .     S
Er11     Er12    10.0   .     S
Er11     Er14    10.0   1_554     S
Er11     V60    10.0   .     S
Er12     Er13    10.0   1_554     S
Er12     V74    10.0   .     S
Er13     Er12    10.0   1_556     S
Er13     Er14    10.0   .     S
Er14     Er11    10.0   1_556     S
Er14     V16    10.0   .     S
V15     V16    10.0   .     S
V15     V20    10.0   .     S
V16     V17    10.0   .     S
V17     Er41    10.0   .     S
V17     V18    10.0   .     S
V18     Er26    10.0   .     S
V18     V19    10.0   .     S
V19     Er66    10.0   .     S
V19     V20    10.0   .     S
V20     Er50    10.0   .     S
Er21     Er22    10.0   .     S
Er21     Er23    10.0   1_556     S
Er21     V29    10.0   .     S
Er22     Er24    10.0   1_556     S
Er23     Er21    10.0   1_554     S
Er23     Er24    10.0   .     S
Er23     V93    10.0   .     S
Er24     Er22    10.0   1_554     S
Er24     V75    10.0   .     S
Er25     Er26    10.0   .     S
Er25     Er28    10.0   1_455     S
Er25     V46    10.0   .     S
Er26     Er27    10.0   1_455     S
Er27     Er26    10.0   1_655     S
Er27     Er28    10.0   .     S
Er28     Er25    10.0   1_655     S
Er28     V30    10.0   .     S
V29     V30    10.0   .     S
V29     V31    10.0   .     S
V30     V34    10.0   .     S
V31     Er36    10.0   .     S
V31     V32    10.0   .     S
V32     V33    10.0   .     S
V33     Er68    10.0   .     S
V33     V34    10.0   .     S
V34     Er90    10.0   .     S
Er35     Er36    10.0   .     S
Er35     Er37    10.0   1_556     S
Er35     V47    10.0   .     S
Er36     Er38    10.0   1_556     S
Er37     Er35    10.0   1_554     S
Er37     Er38    10.0   .     S
Er37     V77    10.0   .     S
Er38     Er36    10.0   1_554     S
Er38     V91    10.0   .     S
Er39     Er40    10.0   .     S
Er39     Er42    10.0   1_554     S
Er39     V79    10.0   .     S
Er40     Er41    10.0   1_554     S
Er40     V57    10.0   .     S
Er41     Er40    10.0   1_556     S
Er41     Er42    10.0   .     S
Er42     Er39    10.0   1_556     S
Er42     V48    10.0   .     S
V43     Er88    10.0   .     S
V43     V46    10.0   .     S
V43     V44    10.0   .     S
V44     Er52    10.0   .     S
V44     V45    10.0   .     S
V45     V47    10.0   .     S
V46     V48    10.0   .     S
V47     V48    10.0   .     S
Er49     Er50    10.0   .     S
Er49     Er51    10.0   1_565     S
Er49     V61    10.0   .     S
Er50     Er52    10.0   1_565     S
Er51     Er49    10.0   1_545     S
Er51     Er52    10.0   .     S
Er51     V81    10.0   .     S
Er52     Er50    10.0   1_545     S
Er53     Er54    10.0   .     S
Er53     Er56    10.0   1_545     S
Er53     V78    10.0   .     S
Er54     Er55    10.0   1_545     S
Er54     V92    10.0   .     S
Er55     Er54    10.0   1_565     S
Er55     Er56    10.0   .     S
Er55     V73    10.0   .     S
Er56     Er53    10.0   1_565     S
Er56     V62    10.0   .     S
V57     V60    10.0   .     S
V57     V58    10.0   .     S
V58     Er86    10.0   .     S
V58     V59    10.0   .     S
V59     Er65    10.0   .     S
V59     V61    10.0   .     S
V60     V62    10.0   .     S
V61     V62    10.0   .     S
Er63     Er64    10.0   .     S
Er63     Er65    10.0   1_655     S
Er63     V71    10.0   .     S
Er64     Er66    10.0   1_655     S
Er65     Er63    10.0   1_455     S
Er65     Er66    10.0   .     S
Er66     Er64    10.0   1_455     S
Er67     Er68    10.0   .     S
Er67     Er70    10.0   1_545     S
Er67     V94    10.0   .     S
Er68     Er69    10.0   1_545     S
Er69     Er68    10.0   1_565     S
Er69     Er70    10.0   .     S
Er70     Er67    10.0   1_565     S
Er70     V72    10.0   .     S
V71     V72    10.0   .     S
V71     V76    10.0   .     S
V72     V73    10.0   .     S
V73     V74    10.0   .     S
V74     V75    10.0   .     S
V75     V76    10.0   .     S
V76     Er84    10.0   .     S
V77     V78    10.0   .     S
V77     V79    10.0   .     S
V78     V81    10.0   .     S
V79     V80    10.0   .     S
V80     Er85    10.0   .     S
V80     V82    10.0   .     S
V81     V82    10.0   .     S
V82     Er87    10.0   .     S
Er83     Er84    10.0   .     S
Er83     Er85    10.0   1_655     S
Er83     V95    10.0   .     S
Er84     Er86    10.0   1_655     S
Er85     Er83    10.0   1_455     S
Er85     Er86    10.0   .     S
Er86     Er84    10.0   1_455     S
Er87     Er88    10.0   .     S
Er87     Er89    10.0   1_455     S
Er88     Er90    10.0   1_455     S
Er89     Er87    10.0   1_655     S
Er89     Er90    10.0   .     S
Er89     V96    10.0   .     S
Er90     Er88    10.0   1_655     S
V91     V93    10.0   .     S
V91     V92    10.0   .     S
V92     V94    10.0   .     S
V93     V95    10.0   .     S
V94     V96    10.0   .     S
V95     V96    10.0   .     S
