data_skb
_audit_creation_date              2020-02-02
_audit_creation_method            'Pymatgen'
_symmetry_space_group_name_H-M    'P1'
_symmetry_Int_Tables_number       1
loop_
_symmetry_equiv_pos_as_xyz
  x,y,z
_cell_length_a                    28.0657
_cell_length_b                    18.3016
_cell_length_c                    38.3013
_cell_angle_alpha                 90.0
_cell_angle_beta                 90.0
_cell_angle_gamma                 90.0
loop_
_atom_site_label
_atom_site_type_symbol
_atom_site_fract_x
_atom_site_fract_y
_atom_site_fract_z
V1     V     0.1782   0.5   0.3695
V2     V     0.1782   0.5   0.6305
V3     V     0.8218   0.5   0.3695
V4     V     0.8218   0.5   0.6305
V5     V     0.6782   0.0   0.3695
V6     V     0.6782   0.0   0.6305
V7     V     0.3219   0.0   0.3695
V8     V     0.3219   0.0   0.6305
V9     V     0.6782   0.5   0.1305
V10     V     0.6782   0.5   0.8695
V11     V     0.3219   0.5   0.1305
V12     V     0.3219   0.5   0.8695
V13     V     0.1782   0.0   0.1305
V14     V     0.1782   0.0   0.8695
V15     V     0.8218   0.0   0.1305
V16     V     0.8218   0.0   0.8695
loop_
_geom_bond_atom_site_label_1
_geom_bond_atom_site_label_2
_geom_bond_distance
_geom_bond_site_symmetry_2
_ccdc_geom_bond_type
V1     V2    10.0   .     S
V1     V3    10.0   1_455     S
V1     V7    10.0   .     S
V1     V7    10.0   1_565     S
V1     V11    10.0   .     S
V2     V4    10.0   1_455     S
V2     V8    10.0   1_565     S
V2     V8    10.0   .     S
V2     V12    10.0   .     S
V3     V4    10.0   .     S
V3     V1    10.0   1_655     S
V3     V5    10.0   1_565     S
V3     V5    10.0   .     S
V3     V9    10.0   .     S
V4     V2    10.0   1_655     S
V4     V6    10.0   .     S
V4     V6    10.0   1_565     S
V4     V10    10.0   .     S
V5     V3    10.0   1_545     S
V5     V6    10.0   .     S
V5     V7    10.0   .     S
V5     V15    10.0   .     S
V6     V4    10.0   1_545     S
V6     V8    10.0   .     S
V6     V16    10.0   .     S
V7     V8    10.0   .     S
V7     V1    10.0   1_545     S
V7     V13    10.0   .     S
V8     V2    10.0   1_545     S
V8     V14    10.0   .     S
V9     V10    10.0   1_554     S
V9     V11    10.0   .     S
V9     V15    10.0   1_565     S
V9     V15    10.0   .     S
V10     V9    10.0   1_556     S
V10     V12    10.0   .     S
V10     V16    10.0   .     S
V10     V16    10.0   1_565     S
V11     V12    10.0   1_554     S
V11     V13    10.0   .     S
V11     V13    10.0   1_565     S
V12     V11    10.0   1_556     S
V12     V14    10.0   1_565     S
V12     V14    10.0   .     S
V13     V14    10.0   1_554     S
V13     V15    10.0   1_455     S
V13     V11    10.0   1_545     S
V14     V13    10.0   1_556     S
V14     V16    10.0   1_455     S
V14     V12    10.0   1_545     S
V15     V16    10.0   1_554     S
V15     V13    10.0   1_655     S
V15     V9    10.0   1_545     S
V16     V15    10.0   1_556     S
V16     V14    10.0   1_655     S
V16     V10    10.0   1_545     S
