data_smo
_audit_creation_date              2020-02-02
_audit_creation_method            'Pymatgen'
_symmetry_space_group_name_H-M    'P1'
_symmetry_Int_Tables_number       1
loop_
_symmetry_equiv_pos_as_xyz
  x,y,z
_cell_length_a                    48.9898
_cell_length_b                    48.9898
_cell_length_c                    48.9898
_cell_angle_alpha                 90.0
_cell_angle_beta                 90.0
_cell_angle_gamma                 90.0
loop_
_atom_site_label
_atom_site_type_symbol
_atom_site_fract_x
_atom_site_fract_y
_atom_site_fract_z
V1     V     0.0   0.8333   0.0833
V2     V     0.0833   0.75   0.9167
V3     V     0.9167   0.6667   0.0
V4     V     0.75   0.9167   0.0833
V5     V     0.8333   0.0833   0.0
V6     V     0.6667   0.0   0.9167
V7     V     0.75   0.8333   0.6667
V8     V     0.6667   0.75   0.8333
V9     V     0.8333   0.6667   0.75
V10     V     0.9167   0.0833   0.75
V11     V     0.0833   0.0   0.8333
V12     V     0.0   0.9167   0.6667
V13     V     0.0   0.6667   0.4167
V14     V     0.9167   0.75   0.5833
V15     V     0.0833   0.8333   0.5
V16     V     0.8333   0.25   0.6667
V17     V     0.75   0.1667   0.8333
V18     V     0.6667   0.3333   0.75
V19     V     0.6667   0.5   0.4167
V20     V     0.8333   0.5833   0.5
V21     V     0.75   0.4167   0.5833
V22     V     0.3333   0.75   0.6667
V23     V     0.1667   0.8333   0.75
V24     V     0.25   0.6667   0.8333
V25     V     0.0833   0.9167   0.25
V26     V     0.9167   0.0   0.1667
V27     V     0.0   0.0833   0.3333
V28     V     0.8333   0.0   0.5833
V29     V     0.75   0.0833   0.4167
V30     V     0.6667   0.9167   0.5
V31     V     0.5833   0.8333   0.0
V32     V     0.4167   0.75   0.0833
V33     V     0.5   0.6667   0.9167
V34     V     0.5833   0.9167   0.75
V35     V     0.4167   0.0   0.6667
V36     V     0.5   0.0833   0.8333
V37     V     0.8333   0.75   0.1667
V38     V     0.75   0.6667   0.3333
V39     V     0.6667   0.8333   0.25
V40     V     0.0   0.5833   0.8333
V41     V     0.0833   0.4167   0.75
V42     V     0.9167   0.5   0.6667
V43     V     0.6667   0.4167   0.0
V44     V     0.75   0.5833   0.9167
V45     V     0.8333   0.5   0.0833
V46     V     0.25   0.0833   0.9167
V47     V     0.1667   0.9167   0.0
V48     V     0.3333   0.0   0.0833
V49     V     0.25   0.3333   0.6667
V50     V     0.3333   0.1667   0.75
V51     V     0.1667   0.25   0.8333
V52     V     0.4167   0.0833   0.25
V53     V     0.5   0.9167   0.1667
V54     V     0.5833   0.0   0.3333
V55     V     0.4167   0.25   0.5833
V56     V     0.5833   0.3333   0.5
V57     V     0.5   0.1667   0.4167
V58     V     0.1667   0.0   0.4167
V59     V     0.25   0.9167   0.5833
V60     V     0.3333   0.0833   0.5
V61     V     0.9167   0.25   0.0833
V62     V     0.0   0.1667   0.9167
V63     V     0.0833   0.3333   0.0
V64     V     0.3333   0.25   0.1667
V65     V     0.25   0.1667   0.3333
V66     V     0.1667   0.3333   0.25
V67     V     0.3333   0.6667   0.25
V68     V     0.25   0.8333   0.1667
V69     V     0.1667   0.75   0.3333
V70     V     0.0   0.4167   0.1667
V71     V     0.9167   0.5833   0.25
V72     V     0.0833   0.5   0.3333
V73     V     0.0833   0.25   0.4167
V74     V     0.0   0.3333   0.5833
V75     V     0.9167   0.1667   0.5
V76     V     0.4167   0.5833   0.75
V77     V     0.5   0.4167   0.6667
V78     V     0.5833   0.5   0.8333
V79     V     0.1667   0.4167   0.5
V80     V     0.25   0.5833   0.4167
V81     V     0.3333   0.5   0.5833
V82     V     0.25   0.4167   0.0833
V83     V     0.1667   0.5   0.9167
V84     V     0.3333   0.5833   0.0
V85     V     0.6667   0.25   0.3333
V86     V     0.8333   0.1667   0.25
V87     V     0.75   0.3333   0.1667
V88     V     0.4167   0.1667   0.0
V89     V     0.5833   0.25   0.9167
V90     V     0.5   0.3333   0.0833
V91     V     0.4167   0.6667   0.5
V92     V     0.5   0.8333   0.5833
V93     V     0.5833   0.75   0.4167
V94     V     0.5833   0.4167   0.25
V95     V     0.4167   0.5   0.1667
V96     V     0.5   0.5833   0.3333
loop_
_geom_bond_atom_site_label_1
_geom_bond_atom_site_label_2
_geom_bond_distance
_geom_bond_site_symmetry_2
_ccdc_geom_bond_type
V1     V37    10.0   1_455     S
V1     V2    10.0   1_554     S
V1     V47    10.0   .     S
V1     V3    10.0   1_455     S
V1     V25    10.0   .     S
V1     V26    10.0   1_465     S
V2     V1    10.0   1_556     S
V2     V47    10.0   1_556     S
V2     V3    10.0   1_456     S
V2     V40    10.0   .     S
V2     V24    10.0   .     S
V2     V23    10.0   .     S
V3     V1    10.0   1_655     S
V3     V2    10.0   1_654     S
V3     V40    10.0   1_654     S
V3     V37    10.0   .     S
V3     V44    10.0   1_554     S
V3     V45    10.0   .     S
V4     V26    10.0   1_565     S
V4     V6    10.0   1_564     S
V4     V31    10.0   .     S
V4     V5    10.0   1_565     S
V4     V37    10.0   .     S
V4     V39    10.0   .     S
V5     V17    10.0   1_554     S
V5     V6    10.0   1_554     S
V5     V4    10.0   1_545     S
V5     V26    10.0   .     S
V5     V61    10.0   .     S
V5     V62    10.0   1_654     S
V6     V5    10.0   1_556     S
V6     V4    10.0   1_546     S
V6     V31    10.0   1_546     S
V6     V17    10.0   .     S
V6     V34    10.0   1_545     S
V6     V36    10.0   .     S
V7     V8    10.0   .     S
V7     V34    10.0   .     S
V7     V14    10.0   .     S
V7     V9    10.0   .     S
V7     V28    10.0   1_565     S
V7     V30    10.0   .     S
V8     V34    10.0   .     S
V8     V44    10.0   .     S
V8     V9    10.0   .     S
V8     V31    10.0   1_556     S
V8     V33    10.0   .     S
V9     V44    10.0   .     S
V9     V14    10.0   .     S
V9     V40    10.0   1_655     S
V9     V42    10.0   .     S
V10     V62    10.0   1_655     S
V10     V12    10.0   1_645     S
V10     V28    10.0   .     S
V10     V11    10.0   1_655     S
V10     V17    10.0   .     S
V10     V16    10.0   .     S
V11     V23    10.0   1_545     S
V11     V12    10.0   1_545     S
V11     V10    10.0   1_455     S
V11     V62    10.0   .     S
V11     V46    10.0   .     S
V11     V47    10.0   1_546     S
V12     V11    10.0   1_565     S
V12     V28    10.0   1_465     S
V12     V10    10.0   1_465     S
V12     V23    10.0   .     S
V12     V14    10.0   1_455     S
V12     V15    10.0   .     S
V13     V14    10.0   1_455     S
V13     V20    10.0   1_455     S
V13     V69    10.0   .     S
V13     V15    10.0   .     S
V13     V71    10.0   1_455     S
V13     V72    10.0   .     S
V14     V13    10.0   1_655     S
V14     V20    10.0   .     S
V14     V12    10.0   1_655     S
V14     V15    10.0   1_655     S
V15     V14    10.0   1_455     S
V15     V69    10.0   .     S
V15     V59    10.0   .     S
V15     V58    10.0   1_565     S
V16     V17    10.0   .     S
V16     V18    10.0   .     S
V16     V21    10.0   .     S
V16     V74    10.0   1_655     S
V16     V75    10.0   .     S
V17     V5    10.0   1_556     S
V17     V89    10.0   .     S
V17     V18    10.0   .     S
V18     V21    10.0   .     S
V18     V89    10.0   .     S
V18     V77    10.0   .     S
V18     V78    10.0   .     S
V19     V21    10.0   .     S
V19     V20    10.0   .     S
V19     V56    10.0   .     S
V19     V38    10.0   .     S
V19     V94    10.0   .     S
V19     V96    10.0   .     S
V20     V13    10.0   1_655     S
V20     V21    10.0   .     S
V20     V42    10.0   .     S
V20     V38    10.0   .     S
V21     V42    10.0   .     S
V21     V56    10.0   .     S
V22     V76    10.0   .     S
V22     V23    10.0   .     S
V22     V24    10.0   .     S
V22     V59    10.0   .     S
V22     V91    10.0   .     S
V22     V92    10.0   .     S
V23     V11    10.0   1_565     S
V23     V59    10.0   .     S
V23     V24    10.0   .     S
V24     V76    10.0   .     S
V24     V83    10.0   .     S
V24     V84    10.0   1_556     S
V25     V26    10.0   1_465     S
V25     V58    10.0   1_565     S
V25     V27    10.0   1_565     S
V25     V68    10.0   .     S
V25     V69    10.0   .     S
V26     V4    10.0   1_545     S
V26     V25    10.0   1_645     S
V26     V27    10.0   1_655     S
V26     V86    10.0   .     S
V26     V1    10.0   1_645     S
V27     V25    10.0   1_545     S
V27     V26    10.0   1_455     S
V27     V86    10.0   1_455     S
V27     V58    10.0   .     S
V27     V73    10.0   .     S
V27     V75    10.0   1_455     S
V28     V12    10.0   1_645     S
V28     V29    10.0   .     S
V28     V30    10.0   1_545     S
V28     V7    10.0   1_545     S
V28     V75    10.0   .     S
V29     V75    10.0   .     S
V29     V54    10.0   .     S
V29     V30    10.0   1_545     S
V29     V85    10.0   .     S
V29     V86    10.0   .     S
V30     V28    10.0   1_565     S
V30     V29    10.0   1_565     S
V30     V54    10.0   1_565     S
V30     V92    10.0   .     S
V30     V93    10.0   .     S
V31     V6    10.0   1_564     S
V31     V8    10.0   1_554     S
V31     V32    10.0   .     S
V31     V53    10.0   .     S
V31     V33    10.0   1_554     S
V32     V53    10.0   .     S
V32     V84    10.0   .     S
V32     V33    10.0   1_554     S
V32     V67    10.0   .     S
V32     V68    10.0   .     S
V33     V32    10.0   1_556     S
V33     V31    10.0   1_556     S
V33     V84    10.0   1_556     S
V33     V76    10.0   .     S
V33     V78    10.0   .     S
V34     V35    10.0   1_565     S
V34     V92    10.0   .     S
V34     V6    10.0   1_565     S
V34     V36    10.0   1_565     S
V35     V34    10.0   1_545     S
V35     V92    10.0   1_545     S
V35     V50    10.0   .     S
V35     V36    10.0   .     S
V35     V59    10.0   1_545     S
V35     V60    10.0   .     S
V36     V34    10.0   1_545     S
V36     V50    10.0   .     S
V36     V89    10.0   .     S
V36     V88    10.0   1_556     S
V37     V1    10.0   1_655     S
V37     V38    10.0   .     S
V37     V39    10.0   .     S
V37     V71    10.0   .     S
V38     V71    10.0   .     S
V38     V39    10.0   .     S
V38     V93    10.0   .     S
V39     V93    10.0   .     S
V39     V54    10.0   1_565     S
V39     V53    10.0   .     S
V40     V3    10.0   1_456     S
V40     V41    10.0   .     S
V40     V83    10.0   .     S
V40     V9    10.0   1_455     S
V40     V42    10.0   1_455     S
V41     V83    10.0   .     S
V41     V74    10.0   .     S
V41     V42    10.0   1_455     S
V41     V49    10.0   .     S
V41     V51    10.0   .     S
V42     V40    10.0   1_655     S
V42     V41    10.0   1_655     S
V42     V74    10.0   1_655     S
V43     V87    10.0   .     S
V43     V44    10.0   1_554     S
V43     V78    10.0   1_554     S
V43     V45    10.0   .     S
V43     V89    10.0   1_554     S
V43     V90    10.0   .     S
V44     V43    10.0   1_556     S
V44     V78    10.0   .     S
V44     V3    10.0   1_556     S
V44     V45    10.0   1_556     S
V45     V44    10.0   1_554     S
V45     V87    10.0   .     S
V45     V70    10.0   1_655     S
V45     V71    10.0   .     S
V46     V47    10.0   1_546     S
V46     V48    10.0   1_556     S
V46     V88    10.0   1_556     S
V46     V50    10.0   .     S
V46     V51    10.0   .     S
V47     V2    10.0   1_554     S
V47     V46    10.0   1_564     S
V47     V11    10.0   1_564     S
V47     V48    10.0   1_565     S
V47     V68    10.0   .     S
V48     V46    10.0   1_554     S
V48     V47    10.0   1_545     S
V48     V68    10.0   1_545     S
V48     V88    10.0   .     S
V48     V52    10.0   .     S
V48     V53    10.0   1_545     S
V49     V50    10.0   .     S
V49     V55    10.0   .     S
V49     V51    10.0   .     S
V49     V79    10.0   .     S
V49     V81    10.0   .     S
V50     V55    10.0   .     S
V50     V51    10.0   .     S
V51     V62    10.0   .     S
V51     V63    10.0   1_556     S
V52     V53    10.0   1_545     S
V52     V54    10.0   .     S
V52     V57    10.0   .     S
V52     V64    10.0   .     S
V52     V65    10.0   .     S
V53     V54    10.0   1_565     S
V53     V52    10.0   1_565     S
V53     V48    10.0   1_565     S
V54     V30    10.0   1_545     S
V54     V53    10.0   1_545     S
V54     V39    10.0   1_545     S
V54     V57    10.0   .     S
V55     V60    10.0   .     S
V55     V57    10.0   .     S
V55     V56    10.0   .     S
V55     V77    10.0   .     S
V56     V57    10.0   .     S
V56     V85    10.0   .     S
V56     V77    10.0   .     S
V57     V85    10.0   .     S
V57     V60    10.0   .     S
V58     V25    10.0   1_545     S
V58     V65    10.0   .     S
V58     V59    10.0   1_545     S
V58     V15    10.0   1_545     S
V58     V60    10.0   .     S
V59     V58    10.0   1_565     S
V59     V35    10.0   1_565     S
V59     V60    10.0   1_565     S
V60     V59    10.0   1_545     S
V60     V65    10.0   .     S
V61     V62    10.0   1_654     S
V61     V63    10.0   1_655     S
V61     V70    10.0   1_655     S
V61     V87    10.0   .     S
V61     V86    10.0   .     S
V62     V10    10.0   1_455     S
V62     V61    10.0   1_456     S
V62     V5    10.0   1_456     S
V62     V63    10.0   1_556     S
V63     V61    10.0   1_455     S
V63     V62    10.0   1_554     S
V63     V51    10.0   1_554     S
V63     V70    10.0   .     S
V63     V82    10.0   .     S
V63     V83    10.0   1_554     S
V64     V65    10.0   .     S
V64     V66    10.0   .     S
V64     V82    10.0   .     S
V64     V88    10.0   .     S
V64     V90    10.0   .     S
V65     V66    10.0   .     S
V65     V73    10.0   .     S
V66     V82    10.0   .     S
V66     V73    10.0   .     S
V66     V70    10.0   .     S
V66     V72    10.0   .     S
V67     V68    10.0   .     S
V67     V69    10.0   .     S
V67     V80    10.0   .     S
V67     V95    10.0   .     S
V67     V96    10.0   .     S
V68     V48    10.0   1_565     S
V68     V69    10.0   .     S
V69     V80    10.0   .     S
V70     V61    10.0   1_455     S
V70     V71    10.0   1_455     S
V70     V45    10.0   1_455     S
V70     V72    10.0   .     S
V71     V70    10.0   1_655     S
V71     V13    10.0   1_655     S
V71     V72    10.0   1_655     S
V72     V71    10.0   1_455     S
V72     V80    10.0   .     S
V72     V79    10.0   .     S
V73     V74    10.0   .     S
V73     V75    10.0   1_455     S
V73     V79    10.0   .     S
V74     V42    10.0   1_455     S
V74     V79    10.0   .     S
V74     V16    10.0   1_455     S
V74     V75    10.0   1_455     S
V75     V73    10.0   1_655     S
V75     V74    10.0   1_655     S
V75     V27    10.0   1_655     S
V76     V81    10.0   .     S
V76     V78    10.0   .     S
V76     V77    10.0   .     S
V77     V81    10.0   .     S
V77     V78    10.0   .     S
V78     V43    10.0   1_556     S
V79     V80    10.0   .     S
V79     V81    10.0   .     S
V80     V81    10.0   .     S
V80     V91    10.0   .     S
V81     V91    10.0   .     S
V82     V83    10.0   1_554     S
V82     V84    10.0   .     S
V82     V95    10.0   .     S
V83     V84    10.0   1_556     S
V83     V82    10.0   1_556     S
V83     V63    10.0   1_556     S
V84     V33    10.0   1_554     S
V84     V83    10.0   1_554     S
V84     V24    10.0   1_554     S
V84     V95    10.0   .     S
V85     V86    10.0   .     S
V85     V87    10.0   .     S
V85     V94    10.0   .     S
V86     V27    10.0   1_655     S
V86     V87    10.0   .     S
V87     V94    10.0   .     S
V88     V46    10.0   1_554     S
V88     V89    10.0   1_554     S
V88     V36    10.0   1_554     S
V88     V90    10.0   .     S
V89     V88    10.0   1_556     S
V89     V90    10.0   1_556     S
V89     V43    10.0   1_556     S
V90     V89    10.0   1_554     S
V90     V94    10.0   .     S
V90     V95    10.0   .     S
V91     V93    10.0   .     S
V91     V92    10.0   .     S
V91     V96    10.0   .     S
V92     V35    10.0   1_565     S
V92     V93    10.0   .     S
V93     V96    10.0   .     S
V94     V96    10.0   .     S
V94     V95    10.0   .     S
V95     V96    10.0   .     S
