data_snb
_audit_creation_date              2020-02-02
_audit_creation_method            'Pymatgen'
_symmetry_space_group_name_H-M    'P1'
_symmetry_Int_Tables_number       1
loop_
_symmetry_equiv_pos_as_xyz
  x,y,z
_cell_length_a                    57.7187
_cell_length_b                    57.7187
_cell_length_c                    57.7187
_cell_angle_alpha                 90.0
_cell_angle_beta                 90.0
_cell_angle_gamma                 90.0
loop_
_atom_site_label
_atom_site_type_symbol
_atom_site_fract_x
_atom_site_fract_y
_atom_site_fract_z
V1     V     0.6634   0.6098   0.75
V2     V     0.5866   0.5   0.6402
V3     V     0.8366   0.6098   0.75
V4     V     0.9134   0.5   0.8598
V5     V     0.1634   0.3902   0.75
V6     V     0.0866   0.5   0.8598
V7     V     0.3366   0.3902   0.75
V8     V     0.4134   0.5   0.6402
V9     V     0.6098   0.75   0.6634
V10     V     0.5   0.6402   0.5866
V11     V     0.6098   0.75   0.8366
V12     V     0.5   0.8598   0.9134
V13     V     0.3902   0.75   0.1634
V14     V     0.5   0.8598   0.0866
V15     V     0.3902   0.75   0.3366
V16     V     0.5   0.6402   0.4134
V17     V     0.75   0.8366   0.6098
V18     V     0.8598   0.9134   0.5
V19     V     0.75   0.6634   0.6098
V20     V     0.6402   0.5866   0.5
V21     V     0.75   0.3366   0.3902
V22     V     0.6402   0.4134   0.5
V23     V     0.75   0.1634   0.3902
V24     V     0.8598   0.0866   0.5
V25     V     0.25   0.3366   0.8902
V26     V     0.1402   0.4134   0.0
V27     V     0.3598   0.0866   0.0
V28     V     0.25   0.1634   0.8902
V29     V     0.3598   0.9134   0.0
V30     V     0.25   0.8366   0.1098
V31     V     0.25   0.6634   0.1098
V32     V     0.1402   0.5866   0.0
V33     V     0.5866   0.5   0.3598
V34     V     0.6634   0.3902   0.25
V35     V     0.9134   0.5   0.1402
V36     V     0.8366   0.3902   0.25
V37     V     0.4134   0.5   0.3598
V38     V     0.3366   0.6098   0.25
V39     V     0.1634   0.6098   0.25
V40     V     0.0866   0.5   0.1402
V41     V     0.8902   0.75   0.8366
V42     V     0.0   0.6402   0.9134
V43     V     0.8902   0.75   0.6634
V44     V     0.0   0.8598   0.5866
V45     V     0.1098   0.75   0.3366
V46     V     0.0   0.8598   0.4134
V47     V     0.1098   0.75   0.1634
V48     V     0.0   0.6402   0.0866
V49     V     0.8366   0.8902   0.75
V50     V     0.9134   0.0   0.6402
V51     V     0.6634   0.8902   0.75
V52     V     0.5866   0.0   0.8598
V53     V     0.1634   0.1098   0.75
V54     V     0.0866   0.0   0.6402
V55     V     0.3366   0.1098   0.75
V56     V     0.4134   0.0   0.8598
V57     V     0.4134   0.0   0.1402
V58     V     0.3366   0.8902   0.25
V59     V     0.6634   0.1098   0.25
V60     V     0.5866   0.0   0.1402
V61     V     0.8366   0.1098   0.25
V62     V     0.9134   0.0   0.3598
V63     V     0.0866   0.0   0.3598
V64     V     0.1634   0.8902   0.25
V65     V     0.5   0.3598   0.4134
V66     V     0.6098   0.25   0.3366
V67     V     0.6098   0.25   0.1634
V68     V     0.5   0.1402   0.0866
V69     V     0.3902   0.25   0.6634
V70     V     0.5   0.3598   0.5866
V71     V     0.3902   0.25   0.8366
V72     V     0.5   0.1402   0.9134
V73     V     0.75   0.8366   0.8902
V74     V     0.6402   0.9134   0.0
V75     V     0.75   0.6634   0.8902
V76     V     0.8598   0.5866   0.0
V77     V     0.75   0.3366   0.1098
V78     V     0.8598   0.4134   0.0
V79     V     0.75   0.1634   0.1098
V80     V     0.6402   0.0866   0.0
V81     V     0.8902   0.25   0.3366
V82     V     0.0   0.1402   0.4134
V83     V     0.0   0.3598   0.0866
V84     V     0.8902   0.25   0.1634
V85     V     0.0   0.3598   0.9134
V86     V     0.1098   0.25   0.8366
V87     V     0.0   0.1402   0.5866
V88     V     0.1098   0.25   0.6634
V89     V     0.25   0.8366   0.3902
V90     V     0.1402   0.9134   0.5
V91     V     0.3598   0.5866   0.5
V92     V     0.25   0.6634   0.3902
V93     V     0.3598   0.4134   0.5
V94     V     0.25   0.3366   0.6098
V95     V     0.25   0.1634   0.6098
V96     V     0.1402   0.0866   0.5
loop_
_geom_bond_atom_site_label_1
_geom_bond_atom_site_label_2
_geom_bond_distance
_geom_bond_site_symmetry_2
_ccdc_geom_bond_type
V1     V2    10.0   .     S
V1     V75    10.0   .     S
V1     V19    10.0   .     S
V1     V3    10.0   .     S
V1     V9    10.0   .     S
V1     V11    10.0   .     S
V2     V10    10.0   .     S
V2     V70    10.0   .     S
V2     V8    10.0   .     S
V2     V20    10.0   .     S
V2     V22    10.0   .     S
V3     V4    10.0   .     S
V3     V75    10.0   .     S
V3     V19    10.0   .     S
V3     V41    10.0   .     S
V3     V43    10.0   .     S
V4     V42    10.0   1_655     S
V4     V85    10.0   1_655     S
V4     V6    10.0   1_655     S
V4     V76    10.0   1_556     S
V4     V78    10.0   1_556     S
V5     V6    10.0   .     S
V5     V25    10.0   .     S
V5     V94    10.0   .     S
V5     V7    10.0   .     S
V5     V86    10.0   .     S
V5     V88    10.0   .     S
V6     V42    10.0   .     S
V6     V85    10.0   .     S
V6     V4    10.0   1_455     S
V6     V26    10.0   1_556     S
V6     V32    10.0   1_556     S
V7     V8    10.0   .     S
V7     V25    10.0   .     S
V7     V94    10.0   .     S
V7     V69    10.0   .     S
V7     V71    10.0   .     S
V8     V10    10.0   .     S
V8     V70    10.0   .     S
V8     V93    10.0   .     S
V8     V91    10.0   .     S
V9     V10    10.0   .     S
V9     V51    10.0   .     S
V9     V11    10.0   .     S
V9     V19    10.0   .     S
V9     V17    10.0   .     S
V10     V20    10.0   .     S
V10     V91    10.0   .     S
V10     V16    10.0   .     S
V11     V12    10.0   .     S
V11     V51    10.0   .     S
V11     V73    10.0   .     S
V11     V75    10.0   .     S
V12     V74    10.0   1_556     S
V12     V29    10.0   1_556     S
V12     V14    10.0   1_556     S
V12     V52    10.0   1_565     S
V12     V56    10.0   1_565     S
V13     V14    10.0   .     S
V13     V58    10.0   .     S
V13     V38    10.0   .     S
V13     V15    10.0   .     S
V13     V30    10.0   .     S
V13     V31    10.0   .     S
V14     V74    10.0   .     S
V14     V29    10.0   .     S
V14     V12    10.0   1_554     S
V14     V57    10.0   1_565     S
V14     V60    10.0   1_565     S
V15     V16    10.0   .     S
V15     V58    10.0   .     S
V15     V38    10.0   .     S
V15     V92    10.0   .     S
V15     V89    10.0   .     S
V16     V20    10.0   .     S
V16     V91    10.0   .     S
V16     V37    10.0   .     S
V16     V33    10.0   .     S
V17     V18    10.0   .     S
V17     V43    10.0   .     S
V17     V19    10.0   .     S
V17     V49    10.0   .     S
V17     V51    10.0   .     S
V18     V50    10.0   1_565     S
V18     V62    10.0   1_565     S
V18     V24    10.0   1_565     S
V18     V44    10.0   1_655     S
V18     V46    10.0   1_655     S
V19     V20    10.0   .     S
V19     V43    10.0   .     S
V20     V33    10.0   .     S
V20     V22    10.0   .     S
V21     V22    10.0   .     S
V21     V81    10.0   .     S
V21     V66    10.0   .     S
V21     V23    10.0   .     S
V21     V34    10.0   .     S
V21     V36    10.0   .     S
V22     V33    10.0   .     S
V22     V65    10.0   .     S
V22     V70    10.0   .     S
V23     V24    10.0   .     S
V23     V81    10.0   .     S
V23     V66    10.0   .     S
V23     V61    10.0   .     S
V23     V59    10.0   .     S
V24     V50    10.0   .     S
V24     V62    10.0   .     S
V24     V18    10.0   1_545     S
V24     V82    10.0   1_655     S
V24     V87    10.0   1_655     S
V25     V26    10.0   1_556     S
V25     V86    10.0   .     S
V25     V71    10.0   .     S
V25     V28    10.0   .     S
V26     V6    10.0   1_554     S
V26     V40    10.0   .     S
V26     V32    10.0   .     S
V26     V25    10.0   1_554     S
V26     V85    10.0   1_554     S
V26     V83    10.0   .     S
V27     V28    10.0   1_554     S
V27     V56    10.0   1_554     S
V27     V57    10.0   .     S
V27     V29    10.0   1_545     S
V27     V72    10.0   1_554     S
V27     V68    10.0   .     S
V28     V27    10.0   1_556     S
V28     V86    10.0   .     S
V28     V71    10.0   .     S
V28     V55    10.0   .     S
V28     V53    10.0   .     S
V29     V12    10.0   1_554     S
V29     V56    10.0   1_564     S
V29     V57    10.0   1_565     S
V29     V27    10.0   1_565     S
V29     V30    10.0   .     S
V30     V47    10.0   .     S
V30     V31    10.0   .     S
V30     V58    10.0   .     S
V30     V64    10.0   .     S
V31     V32    10.0   .     S
V31     V47    10.0   .     S
V31     V39    10.0   .     S
V31     V38    10.0   .     S
V32     V6    10.0   1_554     S
V32     V40    10.0   .     S
V32     V48    10.0   .     S
V32     V42    10.0   1_554     S
V33     V65    10.0   .     S
V33     V37    10.0   .     S
V33     V34    10.0   .     S
V34     V77    10.0   .     S
V34     V36    10.0   .     S
V34     V66    10.0   .     S
V34     V67    10.0   .     S
V35     V36    10.0   .     S
V35     V48    10.0   1_655     S
V35     V83    10.0   1_655     S
V35     V40    10.0   1_655     S
V35     V78    10.0   .     S
V35     V76    10.0   .     S
V36     V77    10.0   .     S
V36     V84    10.0   .     S
V36     V81    10.0   .     S
V37     V65    10.0   .     S
V37     V38    10.0   .     S
V37     V91    10.0   .     S
V37     V93    10.0   .     S
V38     V92    10.0   .     S
V38     V39    10.0   .     S
V39     V40    10.0   .     S
V39     V92    10.0   .     S
V39     V47    10.0   .     S
V39     V45    10.0   .     S
V40     V48    10.0   .     S
V40     V83    10.0   .     S
V40     V35    10.0   1_455     S
V41     V42    10.0   1_655     S
V41     V49    10.0   .     S
V41     V43    10.0   .     S
V41     V75    10.0   .     S
V41     V73    10.0   .     S
V42     V4    10.0   1_455     S
V42     V76    10.0   1_456     S
V42     V32    10.0   1_556     S
V42     V48    10.0   1_556     S
V42     V41    10.0   1_455     S
V43     V44    10.0   1_655     S
V43     V49    10.0   .     S
V44     V43    10.0   1_455     S
V44     V18    10.0   1_455     S
V44     V90    10.0   .     S
V44     V46    10.0   .     S
V44     V50    10.0   1_465     S
V44     V54    10.0   1_565     S
V45     V46    10.0   .     S
V45     V64    10.0   .     S
V45     V47    10.0   .     S
V45     V89    10.0   .     S
V45     V92    10.0   .     S
V46     V18    10.0   1_455     S
V46     V90    10.0   .     S
V46     V63    10.0   1_565     S
V46     V62    10.0   1_465     S
V47     V48    10.0   .     S
V47     V64    10.0   .     S
V48     V35    10.0   1_455     S
V48     V76    10.0   1_455     S
V48     V42    10.0   1_554     S
V49     V50    10.0   1_565     S
V49     V73    10.0   .     S
V49     V51    10.0   .     S
V50     V18    10.0   1_545     S
V50     V44    10.0   1_645     S
V50     V87    10.0   1_655     S
V50     V54    10.0   1_655     S
V50     V49    10.0   1_545     S
V51     V52    10.0   1_565     S
V51     V73    10.0   .     S
V52     V51    10.0   1_545     S
V52     V12    10.0   1_545     S
V52     V72    10.0   .     S
V52     V56    10.0   .     S
V52     V74    10.0   1_546     S
V52     V80    10.0   1_556     S
V53     V54    10.0   .     S
V53     V95    10.0   .     S
V53     V55    10.0   .     S
V53     V88    10.0   .     S
V53     V86    10.0   .     S
V54     V44    10.0   1_545     S
V54     V87    10.0   .     S
V54     V50    10.0   1_455     S
V54     V96    10.0   .     S
V54     V90    10.0   1_545     S
V55     V56    10.0   .     S
V55     V95    10.0   .     S
V55     V71    10.0   .     S
V55     V69    10.0   .     S
V56     V27    10.0   1_556     S
V56     V29    10.0   1_546     S
V56     V12    10.0   1_545     S
V56     V72    10.0   .     S
V57     V29    10.0   1_545     S
V57     V14    10.0   1_545     S
V57     V68    10.0   .     S
V57     V60    10.0   .     S
V57     V58    10.0   1_545     S
V58     V57    10.0   1_565     S
V58     V89    10.0   .     S
V58     V64    10.0   .     S
V59     V60    10.0   .     S
V59     V79    10.0   .     S
V59     V61    10.0   .     S
V59     V67    10.0   .     S
V59     V66    10.0   .     S
V60     V14    10.0   1_545     S
V60     V68    10.0   .     S
V60     V80    10.0   .     S
V60     V74    10.0   1_545     S
V61     V62    10.0   .     S
V61     V79    10.0   .     S
V61     V81    10.0   .     S
V61     V84    10.0   .     S
V62     V18    10.0   1_545     S
V62     V46    10.0   1_645     S
V62     V82    10.0   1_655     S
V62     V63    10.0   1_655     S
V63     V64    10.0   1_545     S
V63     V46    10.0   1_545     S
V63     V82    10.0   .     S
V63     V62    10.0   1_455     S
V63     V90    10.0   1_545     S
V63     V96    10.0   .     S
V64     V89    10.0   .     S
V64     V63    10.0   1_565     S
V65     V93    10.0   .     S
V65     V70    10.0   .     S
V65     V66    10.0   .     S
V66     V67    10.0   .     S
V67     V68    10.0   .     S
V67     V79    10.0   .     S
V67     V77    10.0   .     S
V68     V80    10.0   .     S
V68     V72    10.0   1_554     S
V69     V70    10.0   .     S
V69     V71    10.0   .     S
V69     V94    10.0   .     S
V69     V95    10.0   .     S
V70     V93    10.0   .     S
V71     V72    10.0   .     S
V72     V80    10.0   1_556     S
V72     V27    10.0   1_556     S
V72     V68    10.0   1_556     S
V73     V74    10.0   1_556     S
V73     V75    10.0   .     S
V74     V12    10.0   1_554     S
V74     V52    10.0   1_564     S
V74     V60    10.0   1_565     S
V74     V80    10.0   1_565     S
V74     V73    10.0   1_554     S
V75     V76    10.0   1_556     S
V76     V42    10.0   1_654     S
V76     V48    10.0   1_655     S
V76     V75    10.0   1_554     S
V76     V4    10.0   1_554     S
V76     V78    10.0   .     S
V77     V78    10.0   .     S
V77     V84    10.0   .     S
V77     V79    10.0   .     S
V78     V4    10.0   1_554     S
V78     V83    10.0   1_655     S
V78     V85    10.0   1_654     S
V79     V80    10.0   .     S
V79     V84    10.0   .     S
V80     V72    10.0   1_554     S
V80     V52    10.0   1_554     S
V80     V74    10.0   1_545     S
V81     V82    10.0   1_655     S
V81     V84    10.0   .     S
V82     V62    10.0   1_455     S
V82     V24    10.0   1_455     S
V82     V96    10.0   .     S
V82     V87    10.0   .     S
V82     V81    10.0   1_455     S
V83     V35    10.0   1_455     S
V83     V84    10.0   1_455     S
V83     V78    10.0   1_455     S
V83     V85    10.0   1_554     S
V84     V83    10.0   1_655     S
V85     V4    10.0   1_455     S
V85     V78    10.0   1_456     S
V85     V26    10.0   1_556     S
V85     V83    10.0   1_556     S
V85     V86    10.0   .     S
V86     V88    10.0   .     S
V87     V50    10.0   1_455     S
V87     V24    10.0   1_455     S
V87     V96    10.0   .     S
V87     V88    10.0   .     S
V88     V95    10.0   .     S
V88     V94    10.0   .     S
V89     V90    10.0   .     S
V89     V92    10.0   .     S
V90     V54    10.0   1_565     S
V90     V63    10.0   1_565     S
V90     V96    10.0   1_565     S
V91     V93    10.0   .     S
V91     V92    10.0   .     S
V93     V94    10.0   .     S
V94     V95    10.0   .     S
V95     V96    10.0   .     S
V96     V90    10.0   1_545     S
