data_sodaaa
_audit_creation_date              2020-02-02
_audit_creation_method            'Pymatgen'
_symmetry_space_group_name_H-M    'P1'
_symmetry_Int_Tables_number       1
loop_
_symmetry_equiv_pos_as_xyz
  x,y,z
_cell_length_a                    266.8276
_cell_length_b                    266.8276
_cell_length_c                    266.8276
_cell_angle_alpha                 90.0
_cell_angle_beta                 90.0
_cell_angle_gamma                 90.0
loop_
_atom_site_label
_atom_site_type_symbol
_atom_site_fract_x
_atom_site_fract_y
_atom_site_fract_z
V1     V     0.5187   0.3401   0.0
V2     V     0.4813   0.3401   0.0
V3     V     0.3401   0.4813   0.0
V4     V     0.3401   0.5187   0.0
S5     S     0.4652   0.3119   0.9813
S6     S     0.4652   0.3119   0.0187
Er7     Er     0.444   0.3364   0.0
S8     S     0.3119   0.4652   0.9813
S9     S     0.3119   0.4652   0.0187
Er10     Er     0.3364   0.444   0.0
B11     B     0.424   0.2622   0.0559
H12     H     0.4424   0.2864   0.034
Be13     Be     0.419   0.2614   0.0187
B14     B     0.2622   0.424   0.0559
H15     H     0.2864   0.4424   0.034
Be16     Be     0.2614   0.419   0.0187
B17     B     0.2622   0.424   0.9441
H18     H     0.2864   0.4424   0.966
Be19     Be     0.2614   0.419   0.9813
B20     B     0.424   0.2622   0.9441
H21     H     0.4424   0.2864   0.966
Be22     Be     0.419   0.2614   0.9813
Ti23     Ti     0.4069   0.3421   0.0
Ti24     Ti     0.3421   0.4069   0.0
Li25     Li     0.4054   0.2899   0.0389
He26     He     0.3876   0.316   0.0187
Ce27     Ce     0.3695   0.343   0.0
Li28     Li     0.4054   0.2899   0.9611
He29     He     0.3876   0.316   0.9813
Li30     Li     0.2899   0.4054   0.0389
He31     He     0.316   0.3876   0.0187
Ce32     Ce     0.343   0.3695   0.0
Li33     Li     0.2899   0.4054   0.9611
He34     He     0.316   0.3876   0.9813
V35     V     0.6599   0.4813   0.0
V36     V     0.6599   0.5187   0.0
S37     S     0.5347   0.3119   0.0187
Er38     Er     0.556   0.3364   0.0
S39     S     0.5347   0.3119   0.9813
S40     S     0.6881   0.4652   0.9813
S41     S     0.6881   0.4652   0.0187
Er42     Er     0.6636   0.444   0.0
B43     B     0.7378   0.424   0.0559
H44     H     0.7136   0.4424   0.034
Be45     Be     0.7386   0.419   0.0187
B46     B     0.576   0.2622   0.0559
H47     H     0.5576   0.2864   0.034
Be48     Be     0.581   0.2614   0.0187
B49     B     0.7378   0.424   0.9441
H50     H     0.7136   0.4424   0.966
Be51     Be     0.7386   0.419   0.9813
B52     B     0.576   0.2622   0.9441
H53     H     0.5576   0.2864   0.966
Be54     Be     0.581   0.2614   0.9813
Ti55     Ti     0.5931   0.3421   0.0
Ti56     Ti     0.6579   0.4069   0.0
Li57     Li     0.5946   0.2899   0.0389
He58     He     0.6124   0.316   0.0187
Ce59     Ce     0.6305   0.343   0.0
Li60     Li     0.5946   0.2899   0.9611
He61     He     0.6124   0.316   0.9813
Li62     Li     0.7101   0.4054   0.0389
He63     He     0.684   0.3876   0.0187
Ce64     Ce     0.657   0.3695   0.0
Li65     Li     0.7101   0.4054   0.9611
He66     He     0.684   0.3876   0.9813
S67     S     0.6881   0.5347   0.0187
Er68     Er     0.6636   0.556   0.0
S69     S     0.6881   0.5347   0.9813
S70     S     0.5347   0.6881   0.0187
Er71     Er     0.556   0.6636   0.0
S72     S     0.5347   0.6881   0.9813
B73     B     0.576   0.7378   0.0559
H74     H     0.5576   0.7136   0.034
Be75     Be     0.581   0.7386   0.0187
B76     B     0.7378   0.576   0.0559
H77     H     0.7136   0.5576   0.034
Be78     Be     0.7386   0.581   0.0187
B79     B     0.7378   0.576   0.9441
H80     H     0.7136   0.5576   0.966
Be81     Be     0.7386   0.581   0.9813
B82     B     0.576   0.7378   0.9441
H83     H     0.5576   0.7136   0.966
Be84     Be     0.581   0.7386   0.9813
Ti85     Ti     0.6579   0.5931   0.0
Ti86     Ti     0.5931   0.6579   0.0
Li87     Li     0.7101   0.5946   0.0389
He88     He     0.684   0.6124   0.0187
Ce89     Ce     0.657   0.6305   0.0
Li90     Li     0.7101   0.5946   0.9611
He91     He     0.684   0.6124   0.9813
Li92     Li     0.5946   0.7101   0.0389
He93     He     0.6124   0.684   0.0187
Ce94     Ce     0.6305   0.657   0.0
Li95     Li     0.5946   0.7101   0.9611
He96     He     0.6124   0.684   0.9813
V97     V     0.4813   0.6599   0.0
V98     V     0.5187   0.6599   0.0
S99     S     0.3119   0.5347   0.0187
Er100     Er     0.3364   0.556   0.0
S101     S     0.3119   0.5347   0.9813
S102     S     0.4652   0.6881   0.9813
S103     S     0.4652   0.6881   0.0187
Er104     Er     0.444   0.6636   0.0
B105     B     0.424   0.7378   0.0559
H106     H     0.4424   0.7136   0.034
Be107     Be     0.419   0.7386   0.0187
B108     B     0.424   0.7378   0.9441
H109     H     0.4424   0.7136   0.966
Be110     Be     0.419   0.7386   0.9813
B111     B     0.2622   0.576   0.0559
H112     H     0.2864   0.5576   0.034
Be113     Be     0.2614   0.581   0.0187
B114     B     0.2622   0.576   0.9441
H115     H     0.2864   0.5576   0.966
Be116     Be     0.2614   0.581   0.9813
Ti117     Ti     0.3421   0.5931   0.0
Ti118     Ti     0.4069   0.6579   0.0
Li119     Li     0.2899   0.5946   0.0389
He120     He     0.316   0.6124   0.0187
Ce121     Ce     0.343   0.6305   0.0
Li122     Li     0.2899   0.5946   0.9611
He123     He     0.316   0.6124   0.9813
Li124     Li     0.4054   0.7101   0.0389
He125     He     0.3876   0.684   0.0187
Ce126     Ce     0.3695   0.657   0.0
Li127     Li     0.4054   0.7101   0.9611
He128     He     0.3876   0.684   0.9813
V129     V     0.5   0.0187   0.1599
V130     V     0.5   0.9813   0.1599
S131     S     0.5187   0.0348   0.1881
S132     S     0.4813   0.0348   0.1881
Er133     Er     0.5   0.056   0.1636
S134     S     0.4813   0.1881   0.0348
S135     S     0.5187   0.1881   0.0348
Er136     Er     0.5   0.1636   0.056
B137     B     0.5559   0.076   0.2378
H138     H     0.534   0.0576   0.2136
Be139     Be     0.5187   0.081   0.2386
B140     B     0.5559   0.2378   0.076
H141     H     0.534   0.2136   0.0576
Be142     Be     0.5187   0.2386   0.081
B143     B     0.4441   0.2378   0.076
H144     H     0.466   0.2136   0.0576
Be145     Be     0.4813   0.2386   0.081
B146     B     0.4441   0.076   0.2378
H147     H     0.466   0.0576   0.2136
Be148     Be     0.4813   0.081   0.2386
Ti149     Ti     0.5   0.0931   0.1579
Ti150     Ti     0.5   0.1579   0.0931
Li151     Li     0.5389   0.0946   0.2101
He152     He     0.5187   0.1124   0.184
Ce153     Ce     0.5   0.1305   0.157
Li154     Li     0.4611   0.0946   0.2101
He155     He     0.4813   0.1124   0.184
Li156     Li     0.4611   0.2101   0.0946
He157     He     0.4813   0.184   0.1124
Ce158     Ce     0.5   0.157   0.1305
Li159     Li     0.5389   0.2101   0.0946
He160     He     0.5187   0.184   0.1124
V161     V     0.5   0.1599   0.0187
V162     V     0.5   0.1599   0.9813
S163     S     0.5187   0.1881   0.9652
S164     S     0.4813   0.1881   0.9652
Er165     Er     0.5   0.1636   0.944
S166     S     0.4813   0.0348   0.8119
S167     S     0.5187   0.0348   0.8119
Er168     Er     0.5   0.056   0.8364
B169     B     0.5559   0.076   0.7622
H170     H     0.534   0.0576   0.7864
Be171     Be     0.5187   0.081   0.7614
B172     B     0.4441   0.076   0.7622
H173     H     0.466   0.0576   0.7864
Be174     Be     0.4813   0.081   0.7614
B175     B     0.5559   0.2378   0.924
H176     H     0.534   0.2136   0.9424
Be177     Be     0.5187   0.2386   0.919
B178     B     0.4441   0.2378   0.924
H179     H     0.466   0.2136   0.9424
Be180     Be     0.4813   0.2386   0.919
Ti181     Ti     0.5   0.1579   0.9069
Ti182     Ti     0.5   0.0931   0.8421
Li183     Li     0.5389   0.2101   0.9054
He184     He     0.5187   0.184   0.8876
Ce185     Ce     0.5   0.157   0.8695
Li186     Li     0.4611   0.2101   0.9054
He187     He     0.4813   0.184   0.8876
Li188     Li     0.4611   0.0946   0.7899
He189     He     0.4813   0.1124   0.816
Ce190     Ce     0.5   0.1305   0.843
Li191     Li     0.5389   0.0946   0.7899
He192     He     0.5187   0.1124   0.816
V193     V     0.5   0.0187   0.8401
V194     V     0.5   0.9813   0.8401
S195     S     0.4813   0.9652   0.1881
S196     S     0.5187   0.9652   0.1881
Er197     Er     0.5   0.944   0.1636
S198     S     0.5187   0.8119   0.0348
S199     S     0.4813   0.8119   0.0348
Er200     Er     0.5   0.8364   0.056
B201     B     0.5559   0.7622   0.076
H202     H     0.534   0.7864   0.0576
Be203     Be     0.5187   0.7614   0.081
B204     B     0.4441   0.7622   0.076
H205     H     0.466   0.7864   0.0576
Be206     Be     0.4813   0.7614   0.081
B207     B     0.5559   0.924   0.2378
H208     H     0.534   0.9424   0.2136
Be209     Be     0.5187   0.919   0.2386
B210     B     0.4441   0.924   0.2378
H211     H     0.466   0.9424   0.2136
Be212     Be     0.4813   0.919   0.2386
Ti213     Ti     0.5   0.9069   0.1579
Ti214     Ti     0.5   0.8421   0.0931
Li215     Li     0.4611   0.9054   0.2101
He216     He     0.4813   0.8876   0.184
Ce217     Ce     0.5   0.8695   0.157
Li218     Li     0.5389   0.9054   0.2101
He219     He     0.5187   0.8876   0.184
Li220     Li     0.5389   0.7899   0.0946
He221     He     0.5187   0.816   0.1124
Ce222     Ce     0.5   0.843   0.1305
Li223     Li     0.4611   0.7899   0.0946
He224     He     0.4813   0.816   0.1124
V225     V     0.5   0.8401   0.0187
V226     V     0.5   0.8401   0.9813
S227     S     0.5187   0.9652   0.8119
S228     S     0.4813   0.9652   0.8119
Er229     Er     0.5   0.944   0.8364
S230     S     0.4813   0.8119   0.9652
S231     S     0.5187   0.8119   0.9652
Er232     Er     0.5   0.8364   0.944
B233     B     0.5559   0.7622   0.924
H234     H     0.534   0.7864   0.9424
Be235     Be     0.5187   0.7614   0.919
B236     B     0.5559   0.924   0.7622
H237     H     0.534   0.9424   0.7864
Be238     Be     0.5187   0.919   0.7614
B239     B     0.4441   0.7622   0.924
H240     H     0.466   0.7864   0.9424
Be241     Be     0.4813   0.7614   0.919
B242     B     0.4441   0.924   0.7622
H243     H     0.466   0.9424   0.7864
Be244     Be     0.4813   0.919   0.7614
Ti245     Ti     0.5   0.9069   0.8421
Ti246     Ti     0.5   0.8421   0.9069
Li247     Li     0.4611   0.7899   0.9054
He248     He     0.4813   0.816   0.8876
Ce249     Ce     0.5   0.843   0.8695
Li250     Li     0.5389   0.7899   0.9054
He251     He     0.5187   0.816   0.8876
Li252     Li     0.4611   0.9054   0.7899
He253     He     0.4813   0.8876   0.816
Ce254     Ce     0.5   0.8695   0.843
Li255     Li     0.5389   0.9054   0.7899
He256     He     0.5187   0.8876   0.816
V257     V     0.5187   0.0   0.3401
V258     V     0.4813   0.0   0.3401
V259     V     0.3401   0.0   0.4813
V260     V     0.3401   0.0   0.5187
S261     S     0.4652   0.9813   0.3119
S262     S     0.4652   0.0187   0.3119
Er263     Er     0.444   0.0   0.3364
S264     S     0.3119   0.9813   0.4652
S265     S     0.3119   0.0187   0.4652
Er266     Er     0.3364   0.0   0.444
B267     B     0.2622   0.0559   0.424
H268     H     0.2864   0.034   0.4424
Be269     Be     0.2614   0.0187   0.419
B270     B     0.424   0.0559   0.2622
H271     H     0.4424   0.034   0.2864
Be272     Be     0.419   0.0187   0.2614
B273     B     0.2622   0.9441   0.424
H274     H     0.2864   0.966   0.4424
Be275     Be     0.2614   0.9813   0.419
B276     B     0.424   0.9441   0.2622
H277     H     0.4424   0.966   0.2864
Be278     Be     0.419   0.9813   0.2614
Ti279     Ti     0.4069   0.0   0.3421
Ti280     Ti     0.3421   0.0   0.4069
Li281     Li     0.4054   0.0389   0.2899
He282     He     0.3876   0.0187   0.316
Ce283     Ce     0.3695   0.0   0.343
Li284     Li     0.4054   0.9611   0.2899
He285     He     0.3876   0.9813   0.316
Li286     Li     0.2899   0.0389   0.4054
He287     He     0.316   0.0187   0.3876
Ce288     Ce     0.343   0.0   0.3695
Li289     Li     0.2899   0.9611   0.4054
He290     He     0.316   0.9813   0.3876
V291     V     0.4813   0.0   0.6599
V292     V     0.5187   0.0   0.6599
S293     S     0.3119   0.0187   0.5347
Er294     Er     0.3364   0.0   0.556
S295     S     0.3119   0.9813   0.5347
S296     S     0.4652   0.9813   0.6881
S297     S     0.4652   0.0187   0.6881
Er298     Er     0.444   0.0   0.6636
B299     B     0.424   0.0559   0.7378
H300     H     0.4424   0.034   0.7136
Be301     Be     0.419   0.0187   0.7386
B302     B     0.424   0.9441   0.7378
H303     H     0.4424   0.966   0.7136
Be304     Be     0.419   0.9813   0.7386
B305     B     0.2622   0.0559   0.576
H306     H     0.2864   0.034   0.5576
Be307     Be     0.2614   0.0187   0.581
B308     B     0.2622   0.9441   0.576
H309     H     0.2864   0.966   0.5576
Be310     Be     0.2614   0.9813   0.581
Ti311     Ti     0.3421   0.0   0.5931
Ti312     Ti     0.4069   0.0   0.6579
Li313     Li     0.2899   0.0389   0.5946
He314     He     0.316   0.0187   0.6124
Ce315     Ce     0.343   0.0   0.6305
Li316     Li     0.2899   0.9611   0.5946
He317     He     0.316   0.9813   0.6124
Li318     Li     0.4054   0.0389   0.7101
He319     He     0.3876   0.0187   0.684
Ce320     Ce     0.3695   0.0   0.657
Li321     Li     0.4054   0.9611   0.7101
He322     He     0.3876   0.9813   0.684
S323     S     0.5347   0.0187   0.6881
Er324     Er     0.556   0.0   0.6636
S325     S     0.5347   0.9813   0.6881
S326     S     0.6881   0.0187   0.5347
Er327     Er     0.6636   0.0   0.556
S328     S     0.6881   0.9813   0.5347
B329     B     0.7378   0.0559   0.576
H330     H     0.7136   0.034   0.5576
Be331     Be     0.7386   0.0187   0.581
B332     B     0.576   0.0559   0.7378
H333     H     0.5576   0.034   0.7136
Be334     Be     0.581   0.0187   0.7386
B335     B     0.576   0.9441   0.7378
H336     H     0.5576   0.966   0.7136
Be337     Be     0.581   0.9813   0.7386
B338     B     0.7378   0.9441   0.576
H339     H     0.7136   0.966   0.5576
Be340     Be     0.7386   0.9813   0.581
Ti341     Ti     0.5931   0.0   0.6579
Ti342     Ti     0.6579   0.0   0.5931
Li343     Li     0.5946   0.0389   0.7101
He344     He     0.6124   0.0187   0.684
Ce345     Ce     0.6305   0.0   0.657
Li346     Li     0.5946   0.9611   0.7101
He347     He     0.6124   0.9813   0.684
Li348     Li     0.7101   0.0389   0.5946
He349     He     0.684   0.0187   0.6124
Ce350     Ce     0.657   0.0   0.6305
Li351     Li     0.7101   0.9611   0.5946
He352     He     0.684   0.9813   0.6124
V353     V     0.6599   0.0   0.4813
V354     V     0.6599   0.0   0.5187
S355     S     0.5347   0.0187   0.3119
Er356     Er     0.556   0.0   0.3364
S357     S     0.5347   0.9813   0.3119
S358     S     0.6881   0.9813   0.4652
S359     S     0.6881   0.0187   0.4652
Er360     Er     0.6636   0.0   0.444
B361     B     0.7378   0.0559   0.424
H362     H     0.7136   0.034   0.4424
Be363     Be     0.7386   0.0187   0.419
B364     B     0.576   0.0559   0.2622
H365     H     0.5576   0.034   0.2864
Be366     Be     0.581   0.0187   0.2614
B367     B     0.7378   0.9441   0.424
H368     H     0.7136   0.966   0.4424
Be369     Be     0.7386   0.9813   0.419
B370     B     0.576   0.9441   0.2622
H371     H     0.5576   0.966   0.2864
Be372     Be     0.581   0.9813   0.2614
Ti373     Ti     0.5931   0.0   0.3421
Ti374     Ti     0.6579   0.0   0.4069
Li375     Li     0.5946   0.0389   0.2899
He376     He     0.6124   0.0187   0.316
Ce377     Ce     0.6305   0.0   0.343
Li378     Li     0.5946   0.9611   0.2899
He379     He     0.6124   0.9813   0.316
Li380     Li     0.7101   0.0389   0.4054
He381     He     0.684   0.0187   0.3876
Ce382     Ce     0.657   0.0   0.3695
Li383     Li     0.7101   0.9611   0.4054
He384     He     0.684   0.9813   0.3876
V385     V     0.0187   0.1599   0.5
V386     V     0.9813   0.1599   0.5
S387     S     0.0348   0.1881   0.5187
S388     S     0.0348   0.1881   0.4813
Er389     Er     0.056   0.1636   0.5
S390     S     0.1881   0.0348   0.4813
S391     S     0.1881   0.0348   0.5187
Er392     Er     0.1636   0.056   0.5
B393     B     0.076   0.2378   0.5559
H394     H     0.0576   0.2136   0.534
Be395     Be     0.081   0.2386   0.5187
B396     B     0.2378   0.076   0.5559
H397     H     0.2136   0.0576   0.534
Be398     Be     0.2386   0.081   0.5187
B399     B     0.2378   0.076   0.4441
H400     H     0.2136   0.0576   0.466
Be401     Be     0.2386   0.081   0.4813
B402     B     0.076   0.2378   0.4441
H403     H     0.0576   0.2136   0.466
Be404     Be     0.081   0.2386   0.4813
Ti405     Ti     0.0931   0.1579   0.5
Ti406     Ti     0.1579   0.0931   0.5
Li407     Li     0.0946   0.2101   0.5389
He408     He     0.1124   0.184   0.5187
Ce409     Ce     0.1305   0.157   0.5
Li410     Li     0.0946   0.2101   0.4611
He411     He     0.1124   0.184   0.4813
Li412     Li     0.2101   0.0946   0.4611
He413     He     0.184   0.1124   0.4813
Ce414     Ce     0.157   0.1305   0.5
Li415     Li     0.2101   0.0946   0.5389
He416     He     0.184   0.1124   0.5187
V417     V     0.1599   0.0187   0.5
V418     V     0.1599   0.9813   0.5
S419     S     0.1881   0.9652   0.5187
S420     S     0.1881   0.9652   0.4813
Er421     Er     0.1636   0.944   0.5
S422     S     0.0348   0.8119   0.4813
S423     S     0.0348   0.8119   0.5187
Er424     Er     0.056   0.8364   0.5
B425     B     0.076   0.7622   0.5559
H426     H     0.0576   0.7864   0.534
Be427     Be     0.081   0.7614   0.5187
B428     B     0.076   0.7622   0.4441
H429     H     0.0576   0.7864   0.466
Be430     Be     0.081   0.7614   0.4813
B431     B     0.2378   0.924   0.5559
H432     H     0.2136   0.9424   0.534
Be433     Be     0.2386   0.919   0.5187
B434     B     0.2378   0.924   0.4441
H435     H     0.2136   0.9424   0.466
Be436     Be     0.2386   0.919   0.4813
Ti437     Ti     0.1579   0.9069   0.5
Ti438     Ti     0.0931   0.8421   0.5
Li439     Li     0.2101   0.9054   0.5389
He440     He     0.184   0.8876   0.5187
Ce441     Ce     0.157   0.8695   0.5
Li442     Li     0.2101   0.9054   0.4611
He443     He     0.184   0.8876   0.4813
Li444     Li     0.0946   0.7899   0.4611
He445     He     0.1124   0.816   0.4813
Ce446     Ce     0.1305   0.843   0.5
Li447     Li     0.0946   0.7899   0.5389
He448     He     0.1124   0.816   0.5187
V449     V     0.0187   0.8401   0.5
V450     V     0.9813   0.8401   0.5
S451     S     0.9652   0.1881   0.4813
S452     S     0.9652   0.1881   0.5187
Er453     Er     0.944   0.1636   0.5
S454     S     0.8119   0.0348   0.5187
S455     S     0.8119   0.0348   0.4813
Er456     Er     0.8364   0.056   0.5
B457     B     0.7622   0.076   0.5559
H458     H     0.7864   0.0576   0.534
Be459     Be     0.7614   0.081   0.5187
B460     B     0.7622   0.076   0.4441
H461     H     0.7864   0.0576   0.466
Be462     Be     0.7614   0.081   0.4813
B463     B     0.924   0.2378   0.5559
H464     H     0.9424   0.2136   0.534
Be465     Be     0.919   0.2386   0.5187
B466     B     0.924   0.2378   0.4441
H467     H     0.9424   0.2136   0.466
Be468     Be     0.919   0.2386   0.4813
Ti469     Ti     0.9069   0.1579   0.5
Ti470     Ti     0.8421   0.0931   0.5
Li471     Li     0.9054   0.2101   0.4611
He472     He     0.8876   0.184   0.4813
Ce473     Ce     0.8695   0.157   0.5
Li474     Li     0.9054   0.2101   0.5389
He475     He     0.8876   0.184   0.5187
Li476     Li     0.7899   0.0946   0.5389
He477     He     0.816   0.1124   0.5187
Ce478     Ce     0.843   0.1305   0.5
Li479     Li     0.7899   0.0946   0.4611
He480     He     0.816   0.1124   0.4813
V481     V     0.8401   0.0187   0.5
V482     V     0.8401   0.9813   0.5
S483     S     0.9652   0.8119   0.5187
S484     S     0.9652   0.8119   0.4813
Er485     Er     0.944   0.8364   0.5
S486     S     0.8119   0.9652   0.4813
S487     S     0.8119   0.9652   0.5187
Er488     Er     0.8364   0.944   0.5
B489     B     0.7622   0.924   0.5559
H490     H     0.7864   0.9424   0.534
Be491     Be     0.7614   0.919   0.5187
B492     B     0.924   0.7622   0.5559
H493     H     0.9424   0.7864   0.534
Be494     Be     0.919   0.7614   0.5187
B495     B     0.7622   0.924   0.4441
H496     H     0.7864   0.9424   0.466
Be497     Be     0.7614   0.919   0.4813
B498     B     0.924   0.7622   0.4441
H499     H     0.9424   0.7864   0.466
Be500     Be     0.919   0.7614   0.4813
Ti501     Ti     0.9069   0.8421   0.5
Ti502     Ti     0.8421   0.9069   0.5
Li503     Li     0.7899   0.9054   0.4611
He504     He     0.816   0.8876   0.4813
Ce505     Ce     0.843   0.8695   0.5
Li506     Li     0.7899   0.9054   0.5389
He507     He     0.816   0.8876   0.5187
Li508     Li     0.9054   0.7899   0.4611
He509     He     0.8876   0.816   0.4813
Ce510     Ce     0.8695   0.843   0.5
Li511     Li     0.9054   0.7899   0.5389
He512     He     0.8876   0.816   0.5187
V513     V     0.0187   0.5   0.1599
V514     V     0.9813   0.5   0.1599
S515     S     0.0348   0.4813   0.1881
S516     S     0.0348   0.5187   0.1881
Er517     Er     0.056   0.5   0.1636
S518     S     0.1881   0.5187   0.0348
S519     S     0.1881   0.4813   0.0348
Er520     Er     0.1636   0.5   0.056
B521     B     0.2378   0.5559   0.076
H522     H     0.2136   0.534   0.0576
Be523     Be     0.2386   0.5187   0.081
B524     B     0.076   0.5559   0.2378
H525     H     0.0576   0.534   0.2136
Be526     Be     0.081   0.5187   0.2386
B527     B     0.076   0.4441   0.2378
H528     H     0.0576   0.466   0.2136
Be529     Be     0.081   0.4813   0.2386
B530     B     0.2378   0.4441   0.076
H531     H     0.2136   0.466   0.0576
Be532     Be     0.2386   0.4813   0.081
Ti533     Ti     0.0931   0.5   0.1579
Ti534     Ti     0.1579   0.5   0.0931
Li535     Li     0.0946   0.4611   0.2101
He536     He     0.1124   0.4813   0.184
Ce537     Ce     0.1305   0.5   0.157
Li538     Li     0.0946   0.5389   0.2101
He539     He     0.1124   0.5187   0.184
Li540     Li     0.2101   0.5389   0.0946
He541     He     0.184   0.5187   0.1124
Ce542     Ce     0.157   0.5   0.1305
Li543     Li     0.2101   0.4611   0.0946
He544     He     0.184   0.4813   0.1124
V545     V     0.1599   0.5   0.0187
V546     V     0.1599   0.5   0.9813
S547     S     0.1881   0.4813   0.9652
S548     S     0.1881   0.5187   0.9652
Er549     Er     0.1636   0.5   0.944
S550     S     0.0348   0.5187   0.8119
S551     S     0.0348   0.4813   0.8119
Er552     Er     0.056   0.5   0.8364
B553     B     0.076   0.5559   0.7622
H554     H     0.0576   0.534   0.7864
Be555     Be     0.081   0.5187   0.7614
B556     B     0.076   0.4441   0.7622
H557     H     0.0576   0.466   0.7864
Be558     Be     0.081   0.4813   0.7614
B559     B     0.2378   0.5559   0.924
H560     H     0.2136   0.534   0.9424
Be561     Be     0.2386   0.5187   0.919
B562     B     0.2378   0.4441   0.924
H563     H     0.2136   0.466   0.9424
Be564     Be     0.2386   0.4813   0.919
Ti565     Ti     0.1579   0.5   0.9069
Ti566     Ti     0.0931   0.5   0.8421
Li567     Li     0.2101   0.4611   0.9054
He568     He     0.184   0.4813   0.8876
Ce569     Ce     0.157   0.5   0.8695
Li570     Li     0.2101   0.5389   0.9054
He571     He     0.184   0.5187   0.8876
Li572     Li     0.0946   0.5389   0.7899
He573     He     0.1124   0.5187   0.816
Ce574     Ce     0.1305   0.5   0.843
Li575     Li     0.0946   0.4611   0.7899
He576     He     0.1124   0.4813   0.816
V577     V     0.0187   0.5   0.8401
V578     V     0.9813   0.5   0.8401
S579     S     0.9652   0.5187   0.1881
S580     S     0.9652   0.4813   0.1881
Er581     Er     0.944   0.5   0.1636
S582     S     0.8119   0.4813   0.0348
S583     S     0.8119   0.5187   0.0348
Er584     Er     0.8364   0.5   0.056
B585     B     0.7622   0.5559   0.076
H586     H     0.7864   0.534   0.0576
Be587     Be     0.7614   0.5187   0.081
B588     B     0.7622   0.4441   0.076
H589     H     0.7864   0.466   0.0576
Be590     Be     0.7614   0.4813   0.081
B591     B     0.924   0.5559   0.2378
H592     H     0.9424   0.534   0.2136
Be593     Be     0.919   0.5187   0.2386
B594     B     0.924   0.4441   0.2378
H595     H     0.9424   0.466   0.2136
Be596     Be     0.919   0.4813   0.2386
Ti597     Ti     0.9069   0.5   0.1579
Ti598     Ti     0.8421   0.5   0.0931
Li599     Li     0.9054   0.5389   0.2101
He600     He     0.8876   0.5187   0.184
Ce601     Ce     0.8695   0.5   0.157
Li602     Li     0.9054   0.4611   0.2101
He603     He     0.8876   0.4813   0.184
Li604     Li     0.7899   0.4611   0.0946
He605     He     0.816   0.4813   0.1124
Ce606     Ce     0.843   0.5   0.1305
Li607     Li     0.7899   0.5389   0.0946
He608     He     0.816   0.5187   0.1124
V609     V     0.8401   0.5   0.0187
V610     V     0.8401   0.5   0.9813
S611     S     0.9652   0.4813   0.8119
S612     S     0.9652   0.5187   0.8119
Er613     Er     0.944   0.5   0.8364
S614     S     0.8119   0.5187   0.9652
S615     S     0.8119   0.4813   0.9652
Er616     Er     0.8364   0.5   0.944
B617     B     0.7622   0.5559   0.924
H618     H     0.7864   0.534   0.9424
Be619     Be     0.7614   0.5187   0.919
B620     B     0.924   0.5559   0.7622
H621     H     0.9424   0.534   0.7864
Be622     Be     0.919   0.5187   0.7614
B623     B     0.924   0.4441   0.7622
H624     H     0.9424   0.466   0.7864
Be625     Be     0.919   0.4813   0.7614
B626     B     0.7622   0.4441   0.924
H627     H     0.7864   0.466   0.9424
Be628     Be     0.7614   0.4813   0.919
Ti629     Ti     0.9069   0.5   0.8421
Ti630     Ti     0.8421   0.5   0.9069
Li631     Li     0.7899   0.5389   0.9054
He632     He     0.816   0.5187   0.8876
Ce633     Ce     0.843   0.5   0.8695
Li634     Li     0.7899   0.4611   0.9054
He635     He     0.816   0.4813   0.8876
Li636     Li     0.9054   0.4611   0.7899
He637     He     0.8876   0.4813   0.816
Ce638     Ce     0.8695   0.5   0.843
Li639     Li     0.9054   0.5389   0.7899
He640     He     0.8876   0.5187   0.816
V641     V     0.0   0.5187   0.3401
V642     V     0.0   0.4813   0.3401
V643     V     0.0   0.3401   0.5187
V644     V     0.0   0.3401   0.4813
S645     S     0.9813   0.4652   0.3119
S646     S     0.0187   0.4652   0.3119
Er647     Er     0.0   0.444   0.3364
S648     S     0.9813   0.3119   0.4652
S649     S     0.0187   0.3119   0.4652
Er650     Er     0.0   0.3364   0.444
B651     B     0.0559   0.424   0.2622
H652     H     0.034   0.4424   0.2864
Be653     Be     0.0187   0.419   0.2614
B654     B     0.0559   0.2622   0.424
H655     H     0.034   0.2864   0.4424
Be656     Be     0.0187   0.2614   0.419
B657     B     0.9441   0.2622   0.424
H658     H     0.966   0.2864   0.4424
Be659     Be     0.9813   0.2614   0.419
B660     B     0.9441   0.424   0.2622
H661     H     0.966   0.4424   0.2864
Be662     Be     0.9813   0.419   0.2614
Ti663     Ti     0.0   0.4069   0.3421
Ti664     Ti     0.0   0.3421   0.4069
Li665     Li     0.0389   0.4054   0.2899
He666     He     0.0187   0.3876   0.316
Ce667     Ce     0.0   0.3695   0.343
Li668     Li     0.9611   0.4054   0.2899
He669     He     0.9813   0.3876   0.316
Li670     Li     0.0389   0.2899   0.4054
He671     He     0.0187   0.316   0.3876
Ce672     Ce     0.0   0.343   0.3695
Li673     Li     0.9611   0.2899   0.4054
He674     He     0.9813   0.316   0.3876
V675     V     0.0   0.6599   0.4813
V676     V     0.0   0.6599   0.5187
S677     S     0.0187   0.5347   0.3119
Er678     Er     0.0   0.556   0.3364
S679     S     0.9813   0.5347   0.3119
S680     S     0.9813   0.6881   0.4652
S681     S     0.0187   0.6881   0.4652
Er682     Er     0.0   0.6636   0.444
B683     B     0.0559   0.7378   0.424
H684     H     0.034   0.7136   0.4424
Be685     Be     0.0187   0.7386   0.419
B686     B     0.0559   0.576   0.2622
H687     H     0.034   0.5576   0.2864
Be688     Be     0.0187   0.581   0.2614
B689     B     0.9441   0.7378   0.424
H690     H     0.966   0.7136   0.4424
Be691     Be     0.9813   0.7386   0.419
B692     B     0.9441   0.576   0.2622
H693     H     0.966   0.5576   0.2864
Be694     Be     0.9813   0.581   0.2614
Ti695     Ti     0.0   0.5931   0.3421
Ti696     Ti     0.0   0.6579   0.4069
Li697     Li     0.0389   0.5946   0.2899
He698     He     0.0187   0.6124   0.316
Ce699     Ce     0.0   0.6305   0.343
Li700     Li     0.9611   0.5946   0.2899
He701     He     0.9813   0.6124   0.316
Li702     Li     0.0389   0.7101   0.4054
He703     He     0.0187   0.684   0.3876
Ce704     Ce     0.0   0.657   0.3695
Li705     Li     0.9611   0.7101   0.4054
He706     He     0.9813   0.684   0.3876
S707     S     0.0187   0.6881   0.5347
Er708     Er     0.0   0.6636   0.556
S709     S     0.9813   0.6881   0.5347
S710     S     0.0187   0.5347   0.6881
S711     S     0.9813   0.5347   0.6881
Er712     Er     0.0   0.556   0.6636
B713     B     0.0559   0.576   0.7378
H714     H     0.034   0.5576   0.7136
Be715     Be     0.0187   0.581   0.7386
B716     B     0.0559   0.7378   0.576
H717     H     0.034   0.7136   0.5576
Be718     Be     0.0187   0.7386   0.581
B719     B     0.9441   0.7378   0.576
H720     H     0.966   0.7136   0.5576
Be721     Be     0.9813   0.7386   0.581
B722     B     0.9441   0.576   0.7378
H723     H     0.966   0.5576   0.7136
Be724     Be     0.9813   0.581   0.7386
Ti725     Ti     0.0   0.5931   0.6579
Ti726     Ti     0.0   0.6579   0.5931
Li727     Li     0.0389   0.7101   0.5946
He728     He     0.0187   0.684   0.6124
Ce729     Ce     0.0   0.657   0.6305
Li730     Li     0.9611   0.7101   0.5946
He731     He     0.9813   0.684   0.6124
Li732     Li     0.0389   0.5946   0.7101
He733     He     0.0187   0.6124   0.684
Ce734     Ce     0.0   0.6305   0.657
Li735     Li     0.9611   0.5946   0.7101
He736     He     0.9813   0.6124   0.684
V737     V     0.0   0.5187   0.6599
V738     V     0.0   0.4813   0.6599
S739     S     0.0187   0.3119   0.5347
Er740     Er     0.0   0.3364   0.556
S741     S     0.9813   0.3119   0.5347
S742     S     0.9813   0.4652   0.6881
S743     S     0.0187   0.4652   0.6881
Er744     Er     0.0   0.444   0.6636
B745     B     0.0559   0.424   0.7378
H746     H     0.034   0.4424   0.7136
Be747     Be     0.0187   0.419   0.7386
B748     B     0.9441   0.424   0.7378
H749     H     0.966   0.4424   0.7136
Be750     Be     0.9813   0.419   0.7386
B751     B     0.0559   0.2622   0.576
H752     H     0.034   0.2864   0.5576
Be753     Be     0.0187   0.2614   0.581
B754     B     0.9441   0.2622   0.576
H755     H     0.966   0.2864   0.5576
Be756     Be     0.9813   0.2614   0.581
Ti757     Ti     0.0   0.3421   0.5931
Ti758     Ti     0.0   0.4069   0.6579
Li759     Li     0.0389   0.4054   0.7101
He760     He     0.0187   0.3876   0.684
Ce761     Ce     0.0   0.3695   0.657
Li762     Li     0.9611   0.4054   0.7101
He763     He     0.9813   0.3876   0.684
Li764     Li     0.0389   0.2899   0.5946
He765     He     0.0187   0.316   0.6124
Ce766     Ce     0.0   0.343   0.6305
Li767     Li     0.9611   0.2899   0.5946
He768     He     0.9813   0.316   0.6124
loop_
_geom_bond_atom_site_label_1
_geom_bond_atom_site_label_2
_geom_bond_distance
_geom_bond_site_symmetry_2
_ccdc_geom_bond_type
V1     S37    10.0   .     S
V1     S39    10.0   1_554     S
V1     Er38    10.0   .     S
V1     V2    10.001   .     S
V2     S6    10.0   .     S
V2     S5    10.0   1_554     S
V2     Er7    10.0   .     S
V3     S9    10.0   .     S
V3     S8    10.0   1_554     S
V3     Er10    10.0   .     S
V3     V4    10.001   .     S
V4     S99    10.0   .     S
V4     S101    10.0   1_554     S
V4     Er100    10.0   .     S
S5     V2    10.0   1_556     S
S5     H21    10.0   .     S
S5     Er7    9.999   1_556     S
S5     S6    10.001   1_556     S
S6     H12    10.0   .     S
S6     Er7    9.999   .     S
S6     S5    10.001   1_554     S
Er7     S5    9.999   1_554     S
Er7     Ti23    10.001   .     S
S8     V3    10.0   1_556     S
S8     H18    10.0   .     S
S8     Er10    9.999   1_556     S
S8     S9    10.001   1_556     S
S9     H15    10.0   .     S
S9     Er10    9.999   .     S
S9     S8    10.001   1_554     S
Er10     S8    9.999   1_554     S
Er10     Ti24    10.001   .     S
B11     Li25    9.999   .     S
B11     H12    10.0   .     S
B11     Be13    9.999   .     S
B11     B143    10.003   .     S
H12     Li25    10.0   .     S
H12     Be13    9.999   .     S
Be13     Li25    10.001   .     S
Be13     Be22    10.001   1_554     S
B14     Li30    9.999   .     S
B14     H15    10.0   .     S
B14     Be16    9.999   .     S
B14     B530    10.003   .     S
H15     Li30    10.0   .     S
H15     Be16    9.999   .     S
Be16     Li30    10.001   .     S
Be16     Be19    10.001   1_554     S
B17     Li33    9.999   .     S
B17     H18    10.0   .     S
B17     Be19    9.999   .     S
B17     B562    10.003   .     S
H18     Li33    10.0   .     S
H18     Be19    9.999   .     S
Be19     Li33    10.001   .     S
Be19     Be16    10.001   1_556     S
B20     Li28    9.999   .     S
B20     H21    10.0   .     S
B20     Be22    9.999   .     S
B20     B178    10.003   .     S
H21     Li28    10.0   .     S
H21     Be22    9.999   .     S
Be22     Li28    10.001   .     S
Be22     Be13    10.001   1_556     S
Ti23     Ce27    10.001   .     S
Ti23     He29    10.001   1_554     S
Ti23     He26    10.001   .     S
Ti24     Ce32    10.001   .     S
Ti24     He34    10.001   1_554     S
Ti24     He31    10.001   .     S
Li25     He26    9.999   .     S
He26     Ce27    10.001   .     S
He26     He29    10.001   1_554     S
Ce27     He29    10.001   1_554     S
Ce27     Ce32    10.0   .     S
Li28     He29    9.999   .     S
He29     Ti23    10.001   1_556     S
He29     Ce27    10.001   1_556     S
He29     He26    10.001   1_556     S
Li30     He31    9.999   .     S
He31     Ce32    10.001   .     S
He31     He34    10.001   1_554     S
Ce32     He34    10.001   1_554     S
Li33     He34    9.999   .     S
He34     Ti24    10.001   1_556     S
He34     Ce32    10.001   1_556     S
He34     He31    10.001   1_556     S
V35     S41    10.0   .     S
V35     S40    10.0   1_554     S
V35     Er42    10.0   .     S
V35     V36    10.001   .     S
V36     S67    10.0   .     S
V36     S69    10.0   1_554     S
V36     Er68    10.0   .     S
S37     H47    10.0   .     S
S37     Er38    9.999   .     S
S37     S39    10.001   1_554     S
Er38     S39    9.999   1_554     S
Er38     Ti55    10.001   .     S
S39     V1    10.0   1_556     S
S39     H53    10.0   .     S
S39     Er38    9.999   1_556     S
S39     S37    10.001   1_556     S
S40     V35    10.0   1_556     S
S40     H50    10.0   .     S
S40     Er42    9.999   1_556     S
S40     S41    10.001   1_556     S
S41     H44    10.0   .     S
S41     S40    10.001   1_554     S
S41     Er42    9.999   .     S
Er42     S40    9.999   1_554     S
Er42     Ti56    10.001   .     S
B43     Li62    9.999   .     S
B43     H44    10.0   .     S
B43     Be45    9.999   .     S
B43     B588    10.003   .     S
H44     Li62    10.0   .     S
H44     Be45    9.999   .     S
Be45     Li62    10.001   .     S
Be45     Be51    10.001   1_554     S
B46     Li57    9.999   .     S
B46     H47    10.0   .     S
B46     Be48    9.999   .     S
B46     B140    10.003   .     S
H47     Be48    9.999   .     S
H47     Li57    10.0   .     S
Be48     Li57    10.001   .     S
Be48     Be54    10.001   1_554     S
B49     Li65    9.999   .     S
B49     H50    10.0   .     S
B49     Be51    9.999   .     S
B49     B626    10.003   .     S
H50     Li65    10.0   .     S
H50     Be51    9.999   .     S
Be51     Li65    10.001   .     S
Be51     Be45    10.001   1_556     S
B52     Li60    9.999   .     S
B52     H53    10.0   .     S
B52     Be54    9.999   .     S
B52     B175    10.003   .     S
H53     Be54    9.999   .     S
H53     Li60    10.0   .     S
Be54     Li60    10.001   .     S
Be54     Be48    10.001   1_556     S
Ti55     Ce59    10.001   .     S
Ti55     He61    10.001   1_554     S
Ti55     He58    10.001   .     S
Ti56     Ce64    10.001   .     S
Ti56     He66    10.001   1_554     S
Ti56     He63    10.001   .     S
Li57     He58    9.999   .     S
He58     Ce59    10.001   .     S
He58     He61    10.001   1_554     S
Ce59     He61    10.001   1_554     S
Ce59     Ce64    10.0   .     S
Li60     He61    9.999   .     S
He61     Ti55    10.001   1_556     S
He61     Ce59    10.001   1_556     S
He61     He58    10.001   1_556     S
Li62     He63    9.999   .     S
He63     Ce64    10.001   .     S
He63     He66    10.001   1_554     S
Ce64     He66    10.001   1_554     S
Li65     He66    9.999   .     S
He66     Ti56    10.001   1_556     S
He66     Ce64    10.001   1_556     S
He66     He63    10.001   1_556     S
S67     H77    10.0   .     S
S67     Er68    9.999   .     S
S67     S69    10.001   1_554     S
Er68     S69    9.999   1_554     S
Er68     Ti85    10.001   .     S
S69     V36    10.0   1_556     S
S69     H80    10.0   .     S
S69     Er68    9.999   1_556     S
S69     S67    10.001   1_556     S
S70     H74    10.0   .     S
S70     Er71    9.999   .     S
S70     S72    10.001   1_554     S
S70     V98    10.0   .     S
Er71     S72    9.999   1_554     S
Er71     Ti86    10.001   .     S
Er71     V98    10.0   .     S
S72     H83    10.0   .     S
S72     Er71    9.999   1_556     S
S72     S70    10.001   1_556     S
S72     V98    10.0   1_556     S
B73     Li92    9.999   .     S
B73     H74    10.0   .     S
B73     Be75    9.999   .     S
B73     B201    10.003   .     S
H74     Be75    9.999   .     S
H74     Li92    10.0   .     S
Be75     Li92    10.001   .     S
Be75     Be84    10.001   1_554     S
B76     Li87    9.999   .     S
B76     H77    10.0   .     S
B76     Be78    9.999   .     S
B76     B585    10.003   .     S
H77     Be78    9.999   .     S
H77     Li87    10.0   .     S
Be78     Li87    10.001   .     S
Be78     Be81    10.001   1_554     S
B79     Li90    9.999   .     S
B79     H80    10.0   .     S
B79     Be81    9.999   .     S
B79     B617    10.003   .     S
H80     Be81    9.999   .     S
H80     Li90    10.0   .     S
Be81     Li90    10.001   .     S
Be81     Be78    10.001   1_556     S
B82     Li95    9.999   .     S
B82     H83    10.0   .     S
B82     Be84    9.999   .     S
B82     B233    10.003   .     S
H83     Be84    9.999   .     S
H83     Li95    10.0   .     S
Be84     Li95    10.001   .     S
Be84     Be75    10.001   1_556     S
Ti85     Ce89    10.001   .     S
Ti85     He91    10.001   1_554     S
Ti85     He88    10.001   .     S
Ti86     Ce94    10.001   .     S
Ti86     He96    10.001   1_554     S
Ti86     He93    10.001   .     S
Li87     He88    9.999   .     S
He88     Ce89    10.001   .     S
He88     He91    10.001   1_554     S
Ce89     He91    10.001   1_554     S
Ce89     Ce94    10.0   .     S
Li90     He91    9.999   .     S
He91     Ti85    10.001   1_556     S
He91     Ce89    10.001   1_556     S
He91     He88    10.001   1_556     S
Li92     He93    9.999   .     S
He93     Ce94    10.001   .     S
He93     He96    10.001   1_554     S
Ce94     He96    10.001   1_554     S
Li95     He96    9.999   .     S
He96     Ti86    10.001   1_556     S
He96     Ce94    10.001   1_556     S
He96     He93    10.001   1_556     S
V97     S103    10.0   .     S
V97     S102    10.0   1_554     S
V97     Er104    10.0   .     S
V97     V98    10.001   .     S
V98     S72    10.0   1_554     S
S99     H112    10.0   .     S
S99     Er100    9.999   .     S
S99     S101    10.001   1_554     S
Er100     S101    9.999   1_554     S
Er100     Ti117    10.001   .     S
S101     V4    10.0   1_556     S
S101     H115    10.0   .     S
S101     Er100    9.999   1_556     S
S101     S99    10.001   1_556     S
S102     V97    10.0   1_556     S
S102     H109    10.0   .     S
S102     Er104    9.999   1_556     S
S102     S103    10.001   1_556     S
S103     H106    10.0   .     S
S103     Er104    9.999   .     S
S103     S102    10.001   1_554     S
Er104     S102    9.999   1_554     S
Er104     Ti118    10.001   .     S
B105     Li124    9.999   .     S
B105     H106    10.0   .     S
B105     Be107    9.999   .     S
B105     B204    10.003   .     S
H106     Li124    10.0   .     S
H106     Be107    9.999   .     S
Be107     Li124    10.001   .     S
Be107     Be110    10.001   1_554     S
B108     Li127    9.999   .     S
B108     H109    10.0   .     S
B108     Be110    9.999   .     S
B108     B239    10.003   .     S
H109     Li127    10.0   .     S
H109     Be110    9.999   .     S
Be110     Li127    10.001   .     S
Be110     Be107    10.001   1_556     S
B111     Li119    9.999   .     S
B111     H112    10.0   .     S
B111     Be113    9.999   .     S
B111     B521    10.003   .     S
H112     Be113    9.999   .     S
H112     Li119    10.0   .     S
Be113     Li119    10.001   .     S
Be113     Be116    10.001   1_554     S
B114     Li122    9.999   .     S
B114     H115    10.0   .     S
B114     Be116    9.999   .     S
B114     B559    10.003   .     S
H115     Be116    9.999   .     S
H115     Li122    10.0   .     S
Be116     Li122    10.001   .     S
Be116     Be113    10.001   1_556     S
Ti117     Ce121    10.001   .     S
Ti117     He123    10.001   1_554     S
Ti117     He120    10.001   .     S
Ti118     Ce126    10.001   .     S
Ti118     He128    10.001   1_554     S
Ti118     He125    10.001   .     S
Li119     He120    9.999   .     S
He120     Ce121    10.001   .     S
He120     He123    10.001   1_554     S
Ce121     He123    10.001   1_554     S
Ce121     Ce126    10.0   .     S
Li122     He123    9.999   .     S
He123     Ti117    10.001   1_556     S
He123     Ce121    10.001   1_556     S
He123     He120    10.001   1_556     S
Li124     He125    9.999   .     S
He125     Ce126    10.001   .     S
He125     He128    10.001   1_554     S
Ce126     He128    10.001   1_554     S
Li127     He128    9.999   .     S
He128     Ti118    10.001   1_556     S
He128     Ce126    10.001   1_556     S
He128     He125    10.001   1_556     S
V129     S132    10.0   .     S
V129     S131    10.0   .     S
V129     Er133    10.0   .     S
V129     V130    10.001   1_545     S
V130     S196    10.0   .     S
V130     S195    10.0   .     S
V130     Er197    10.0   .     S
V130     V129    10.001   1_565     S
S131     H138    10.0   .     S
S131     S132    10.001   .     S
S131     Er133    9.999   .     S
S132     H147    10.0   .     S
S132     Er133    9.999   .     S
Er133     Ti149    10.001   .     S
S134     H144    10.0   .     S
S134     S135    10.001   .     S
S134     Er136    9.999   .     S
S134     V161    10.0   .     S
S135     H141    10.0   .     S
S135     Er136    9.999   .     S
S135     V161    10.0   .     S
Er136     Ti150    10.001   .     S
Er136     V161    10.0   .     S
B137     Li151    9.999   .     S
B137     H138    10.0   .     S
B137     Be139    9.999   .     S
B137     B364    10.003   .     S
H138     Li151    10.0   .     S
H138     Be139    9.999   .     S
Be139     Li151    10.001   .     S
Be139     Be148    10.001   .     S
B140     Li159    9.999   .     S
B140     H141    10.0   .     S
B140     Be142    9.999   .     S
H141     Li159    10.0   .     S
H141     Be142    9.999   .     S
Be142     Li159    10.001   .     S
Be142     Be145    10.001   .     S
B143     Li156    9.999   .     S
B143     H144    10.0   .     S
B143     Be145    9.999   .     S
H144     Li156    10.0   .     S
H144     Be145    9.999   .     S
Be145     Li156    10.001   .     S
B146     Li154    9.999   .     S
B146     H147    10.0   .     S
B146     Be148    9.999   .     S
B146     B270    10.003   .     S
H147     Li154    10.0   .     S
H147     Be148    9.999   .     S
Be148     Li154    10.001   .     S
Ti149     Ce153    10.001   .     S
Ti149     He152    10.001   .     S
Ti149     He155    10.001   .     S
Ti150     Ce158    10.001   .     S
Ti150     He157    10.001   .     S
Ti150     He160    10.001   .     S
Li151     He152    9.999   .     S
He152     Ce153    10.001   .     S
He152     He155    10.001   .     S
Ce153     He155    10.001   .     S
Ce153     Ce158    10.0   .     S
Li154     He155    9.999   .     S
Li156     He157    9.999   .     S
He157     Ce158    10.001   .     S
He157     He160    10.001   .     S
Ce158     He160    10.001   .     S
Li159     He160    9.999   .     S
V161     V162    10.001   1_554     S
V162     S164    10.0   .     S
V162     S163    10.0   .     S
V162     Er165    10.0   .     S
V162     V161    10.001   1_556     S
S163     H176    10.0   .     S
S163     S164    10.001   .     S
S163     Er165    9.999   .     S
S164     H179    10.0   .     S
S164     Er165    9.999   .     S
Er165     Ti181    10.001   .     S
S166     H173    10.0   .     S
S166     S167    10.001   .     S
S166     Er168    9.999   .     S
S166     V193    10.0   .     S
S167     H170    10.0   .     S
S167     Er168    9.999   .     S
S167     V193    10.0   .     S
Er168     Ti182    10.001   .     S
Er168     V193    10.0   .     S
B169     Li191    9.999   .     S
B169     H170    10.0   .     S
B169     Be171    9.999   .     S
B169     B332    10.003   .     S
H170     Be171    9.999   .     S
H170     Li191    10.0   .     S
Be171     Li191    10.001   .     S
Be171     Be174    10.001   .     S
B172     Li188    9.999   .     S
B172     H173    10.0   .     S
B172     Be174    9.999   .     S
B172     B299    10.003   .     S
H173     Be174    9.999   .     S
H173     Li188    10.0   .     S
Be174     Li188    10.001   .     S
B175     Li183    9.999   .     S
B175     H176    10.0   .     S
B175     Be177    9.999   .     S
H176     Be177    9.999   .     S
H176     Li183    10.0   .     S
Be177     Li183    10.001   .     S
Be177     Be180    10.001   .     S
B178     Li186    9.999   .     S
B178     H179    10.0   .     S
B178     Be180    9.999   .     S
H179     Be180    9.999   .     S
H179     Li186    10.0   .     S
Be180     Li186    10.001   .     S
Ti181     Ce185    10.001   .     S
Ti181     He184    10.001   .     S
Ti181     He187    10.001   .     S
Ti182     Ce190    10.001   .     S
Ti182     He189    10.001   .     S
Ti182     He192    10.001   .     S
Li183     He184    9.999   .     S
He184     Ce185    10.001   .     S
He184     He187    10.001   .     S
Ce185     He187    10.001   .     S
Ce185     Ce190    10.0   .     S
Li186     He187    9.999   .     S
Li188     He189    9.999   .     S
He189     Ce190    10.001   .     S
He189     He192    10.001   .     S
Ce190     He192    10.001   .     S
Li191     He192    9.999   .     S
V193     V194    10.001   1_545     S
V194     S228    10.0   .     S
V194     S227    10.0   .     S
V194     Er229    10.0   .     S
V194     V193    10.001   1_565     S
S195     H211    10.0   .     S
S195     S196    10.001   .     S
S195     Er197    9.999   .     S
S196     H208    10.0   .     S
S196     Er197    9.999   .     S
Er197     Ti213    10.001   .     S
S198     H202    10.0   .     S
S198     S199    10.001   .     S
S198     Er200    9.999   .     S
S198     V225    10.0   .     S
S199     H205    10.0   .     S
S199     Er200    9.999   .     S
S199     V225    10.0   .     S
Er200     Ti214    10.001   .     S
Er200     V225    10.0   .     S
B201     Li220    9.999   .     S
B201     H202    10.0   .     S
B201     Be203    9.999   .     S
H202     Be203    9.999   .     S
H202     Li220    10.0   .     S
Be203     Li220    10.001   .     S
Be203     Be206    10.001   .     S
B204     Li223    9.999   .     S
B204     H205    10.0   .     S
B204     Be206    9.999   .     S
H205     Be206    9.999   .     S
H205     Li223    10.0   .     S
Be206     Li223    10.001   .     S
B207     Li218    9.999   .     S
B207     H208    10.0   .     S
B207     Be209    9.999   .     S
B207     B370    10.003   .     S
H208     Be209    9.999   .     S
H208     Li218    10.0   .     S
Be209     Li218    10.001   .     S
Be209     Be212    10.001   .     S
B210     Li215    9.999   .     S
B210     H211    10.0   .     S
B210     Be212    9.999   .     S
B210     B276    10.003   .     S
H211     Be212    9.999   .     S
H211     Li215    10.0   .     S
Be212     Li215    10.001   .     S
Ti213     Ce217    10.001   .     S
Ti213     He216    10.001   .     S
Ti213     He219    10.001   .     S
Ti214     Ce222    10.001   .     S
Ti214     He221    10.001   .     S
Ti214     He224    10.001   .     S
Li215     He216    9.999   .     S
He216     Ce217    10.001   .     S
He216     He219    10.001   .     S
Ce217     He219    10.001   .     S
Ce217     Ce222    10.0   .     S
Li218     He219    9.999   .     S
Li220     He221    9.999   .     S
He221     Ce222    10.001   .     S
He221     He224    10.001   .     S
Ce222     He224    10.001   .     S
Li223     He224    9.999   .     S
V225     V226    10.001   1_554     S
V226     S231    10.0   .     S
V226     S230    10.0   .     S
V226     Er232    10.0   .     S
V226     V225    10.001   1_556     S
S227     H237    10.0   .     S
S227     S228    10.001   .     S
S227     Er229    9.999   .     S
S228     H243    10.0   .     S
S228     Er229    9.999   .     S
Er229     Ti245    10.001   .     S
S230     H240    10.0   .     S
S230     S231    10.001   .     S
S230     Er232    9.999   .     S
S231     H234    10.0   .     S
S231     Er232    9.999   .     S
Er232     Ti246    10.001   .     S
B233     Li250    9.999   .     S
B233     H234    10.0   .     S
B233     Be235    9.999   .     S
H234     Be235    9.999   .     S
H234     Li250    10.0   .     S
Be235     Li250    10.001   .     S
Be235     Be241    10.001   .     S
B236     Li255    9.999   .     S
B236     H237    10.0   .     S
B236     Be238    9.999   .     S
B236     B335    10.003   .     S
H237     Be238    9.999   .     S
H237     Li255    10.0   .     S
Be238     Li255    10.001   .     S
Be238     Be244    10.001   .     S
B239     Li247    9.999   .     S
B239     H240    10.0   .     S
B239     Be241    9.999   .     S
H240     Be241    9.999   .     S
H240     Li247    10.0   .     S
Be241     Li247    10.001   .     S
B242     Li252    9.999   .     S
B242     H243    10.0   .     S
B242     Be244    9.999   .     S
B242     B302    10.003   .     S
H243     Be244    9.999   .     S
H243     Li252    10.0   .     S
Be244     Li252    10.001   .     S
Ti245     Ce254    10.001   .     S
Ti245     He253    10.001   .     S
Ti245     He256    10.001   .     S
Ti246     Ce249    10.001   .     S
Ti246     He248    10.001   .     S
Ti246     He251    10.001   .     S
Li247     He248    9.999   .     S
He248     Ce249    10.001   .     S
He248     He251    10.001   .     S
Ce249     He251    10.001   .     S
Ce249     Ce254    10.0   .     S
Li250     He251    9.999   .     S
Li252     He253    9.999   .     S
He253     Ce254    10.001   .     S
He253     He256    10.001   .     S
Ce254     He256    10.001   .     S
Li255     He256    9.999   .     S
V257     S355    10.0   .     S
V257     S357    10.0   1_545     S
V257     Er356    10.0   .     S
V257     V258    10.001   .     S
V258     S262    10.0   .     S
V258     S261    10.0   1_545     S
V258     Er263    10.0   .     S
V259     S265    10.0   .     S
V259     S264    10.0   1_545     S
V259     Er266    10.0   .     S
V259     V260    10.001   .     S
V260     S293    10.0   .     S
V260     S295    10.0   1_545     S
V260     Er294    10.0   .     S
S261     V258    10.0   1_565     S
S261     H277    10.0   .     S
S261     Er263    9.999   1_565     S
S261     S262    10.001   1_565     S
S262     H271    10.0   .     S
S262     Er263    9.999   .     S
S262     S261    10.001   1_545     S
Er263     S261    9.999   1_545     S
Er263     Ti279    10.001   .     S
S264     V259    10.0   1_565     S
S264     H274    10.0   .     S
S264     Er266    9.999   1_565     S
S264     S265    10.001   1_565     S
S265     H268    10.0   .     S
S265     Er266    9.999   .     S
S265     S264    10.001   1_545     S
Er266     S264    9.999   1_545     S
Er266     Ti280    10.001   .     S
B267     Li286    9.999   .     S
B267     H268    10.0   .     S
B267     Be269    9.999   .     S
B267     B399    10.003   .     S
H268     Li286    10.0   .     S
H268     Be269    9.999   .     S
Be269     Li286    10.001   .     S
Be269     Be275    10.001   1_545     S
B270     Li281    9.999   .     S
B270     H271    10.0   .     S
B270     Be272    9.999   .     S
H271     Li281    10.0   .     S
H271     Be272    9.999   .     S
Be272     Li281    10.001   .     S
Be272     Be278    10.001   1_545     S
B273     Li289    9.999   .     S
B273     H274    10.0   .     S
B273     Be275    9.999   .     S
B273     B434    10.003   .     S
H274     Li289    10.0   .     S
H274     Be275    9.999   .     S
Be275     Li289    10.001   .     S
Be275     Be269    10.001   1_565     S
B276     Li284    9.999   .     S
B276     H277    10.0   .     S
B276     Be278    9.999   .     S
H277     Li284    10.0   .     S
H277     Be278    9.999   .     S
Be278     Li284    10.001   .     S
Be278     Be272    10.001   1_565     S
Ti279     Ce283    10.001   .     S
Ti279     He285    10.001   1_545     S
Ti279     He282    10.001   .     S
Ti280     Ce288    10.001   .     S
Ti280     He290    10.001   1_545     S
Ti280     He287    10.001   .     S
Li281     He282    9.999   .     S
He282     Ce283    10.001   .     S
He282     He285    10.001   1_545     S
Ce283     He285    10.001   1_545     S
Ce283     Ce288    10.0   .     S
Li284     He285    9.999   .     S
He285     Ti279    10.001   1_565     S
He285     Ce283    10.001   1_565     S
He285     He282    10.001   1_565     S
Li286     He287    9.999   .     S
He287     Ce288    10.001   .     S
He287     He290    10.001   1_545     S
Ce288     He290    10.001   1_545     S
Li289     He290    9.999   .     S
He290     Ti280    10.001   1_565     S
He290     Ce288    10.001   1_565     S
He290     He287    10.001   1_565     S
V291     S297    10.0   .     S
V291     S296    10.0   1_545     S
V291     Er298    10.0   .     S
V291     V292    10.001   .     S
V292     S323    10.0   .     S
V292     S325    10.0   1_545     S
V292     Er324    10.0   .     S
S293     H306    10.0   .     S
S293     Er294    9.999   .     S
S293     S295    10.001   1_545     S
Er294     S295    9.999   1_545     S
Er294     Ti311    10.001   .     S
S295     V260    10.0   1_565     S
S295     H309    10.0   .     S
S295     Er294    9.999   1_565     S
S295     S293    10.001   1_565     S
S296     V291    10.0   1_565     S
S296     H303    10.0   .     S
S296     Er298    9.999   1_565     S
S296     S297    10.001   1_565     S
S297     H300    10.0   .     S
S297     S296    10.001   1_545     S
S297     Er298    9.999   .     S
Er298     S296    9.999   1_545     S
Er298     Ti312    10.001   .     S
B299     Li318    9.999   .     S
B299     H300    10.0   .     S
B299     Be301    9.999   .     S
H300     Li318    10.0   .     S
H300     Be301    9.999   .     S
Be301     Li318    10.001   .     S
Be301     Be304    10.001   1_545     S
B302     Li321    9.999   .     S
B302     H303    10.0   .     S
B302     Be304    9.999   .     S
H303     Li321    10.0   .     S
H303     Be304    9.999   .     S
Be304     Li321    10.001   .     S
Be304     Be301    10.001   1_565     S
B305     Li313    9.999   .     S
B305     H306    10.0   .     S
B305     Be307    9.999   .     S
B305     B396    10.003   .     S
H306     Be307    9.999   .     S
H306     Li313    10.0   .     S
Be307     Li313    10.001   .     S
Be307     Be310    10.001   1_545     S
B308     Li316    9.999   .     S
B308     H309    10.0   .     S
B308     Be310    9.999   .     S
B308     B431    10.003   .     S
H309     Be310    9.999   .     S
H309     Li316    10.0   .     S
Be310     Li316    10.001   .     S
Be310     Be307    10.001   1_565     S
Ti311     Ce315    10.001   .     S
Ti311     He317    10.001   1_545     S
Ti311     He314    10.001   .     S
Ti312     Ce320    10.001   .     S
Ti312     He322    10.001   1_545     S
Ti312     He319    10.001   .     S
Li313     He314    9.999   .     S
He314     Ce315    10.001   .     S
He314     He317    10.001   1_545     S
Ce315     He317    10.001   1_545     S
Ce315     Ce320    10.0   .     S
Li316     He317    9.999   .     S
He317     Ti311    10.001   1_565     S
He317     Ce315    10.001   1_565     S
He317     He314    10.001   1_565     S
Li318     He319    9.999   .     S
He319     Ce320    10.001   .     S
He319     He322    10.001   1_545     S
Ce320     He322    10.001   1_545     S
Li321     He322    9.999   .     S
He322     Ti312    10.001   1_565     S
He322     Ce320    10.001   1_565     S
He322     He319    10.001   1_565     S
S323     H333    10.0   .     S
S323     Er324    9.999   .     S
S323     S325    10.001   1_545     S
Er324     S325    9.999   1_545     S
Er324     Ti341    10.001   .     S
S325     V292    10.0   1_565     S
S325     H336    10.0   .     S
S325     Er324    9.999   1_565     S
S325     S323    10.001   1_565     S
S326     H330    10.0   .     S
S326     Er327    9.999   .     S
S326     S328    10.001   1_545     S
S326     V354    10.0   .     S
Er327     S328    9.999   1_545     S
Er327     Ti342    10.001   .     S
Er327     V354    10.0   .     S
S328     H339    10.0   .     S
S328     Er327    9.999   1_565     S
S328     S326    10.001   1_565     S
S328     V354    10.0   1_565     S
B329     Li348    9.999   .     S
B329     H330    10.0   .     S
B329     Be331    9.999   .     S
B329     B457    10.003   .     S
H330     Be331    9.999   .     S
H330     Li348    10.0   .     S
Be331     Li348    10.001   .     S
Be331     Be340    10.001   1_545     S
B332     Li343    9.999   .     S
B332     H333    10.0   .     S
B332     Be334    9.999   .     S
H333     Be334    9.999   .     S
H333     Li343    10.0   .     S
Be334     Li343    10.001   .     S
Be334     Be337    10.001   1_545     S
B335     Li346    9.999   .     S
B335     H336    10.0   .     S
B335     Be337    9.999   .     S
H336     Be337    9.999   .     S
H336     Li346    10.0   .     S
Be337     Li346    10.001   .     S
Be337     Be334    10.001   1_565     S
B338     Li351    9.999   .     S
B338     H339    10.0   .     S
B338     Be340    9.999   .     S
B338     B489    10.003   .     S
H339     Be340    9.999   .     S
H339     Li351    10.0   .     S
Be340     Li351    10.001   .     S
Be340     Be331    10.001   1_565     S
Ti341     Ce345    10.001   .     S
Ti341     He347    10.001   1_545     S
Ti341     He344    10.001   .     S
Ti342     Ce350    10.001   .     S
Ti342     He352    10.001   1_545     S
Ti342     He349    10.001   .     S
Li343     He344    9.999   .     S
He344     Ce345    10.001   .     S
He344     He347    10.001   1_545     S
Ce345     He347    10.001   1_545     S
Ce345     Ce350    10.0   .     S
Li346     He347    9.999   .     S
He347     Ti341    10.001   1_565     S
He347     Ce345    10.001   1_565     S
He347     He344    10.001   1_565     S
Li348     He349    9.999   .     S
He349     Ce350    10.001   .     S
He349     He352    10.001   1_545     S
Ce350     He352    10.001   1_545     S
Li351     He352    9.999   .     S
He352     Ti342    10.001   1_565     S
He352     Ce350    10.001   1_565     S
He352     He349    10.001   1_565     S
V353     S359    10.0   .     S
V353     S358    10.0   1_545     S
V353     Er360    10.0   .     S
V353     V354    10.001   .     S
V354     S328    10.0   1_545     S
S355     H365    10.0   .     S
S355     Er356    9.999   .     S
S355     S357    10.001   1_545     S
Er356     S357    9.999   1_545     S
Er356     Ti373    10.001   .     S
S357     V257    10.0   1_565     S
S357     H371    10.0   .     S
S357     Er356    9.999   1_565     S
S357     S355    10.001   1_565     S
S358     V353    10.0   1_565     S
S358     H368    10.0   .     S
S358     Er360    9.999   1_565     S
S358     S359    10.001   1_565     S
S359     H362    10.0   .     S
S359     Er360    9.999   .     S
S359     S358    10.001   1_545     S
Er360     S358    9.999   1_545     S
Er360     Ti374    10.001   .     S
B361     Li380    9.999   .     S
B361     H362    10.0   .     S
B361     Be363    9.999   .     S
B361     B460    10.003   .     S
H362     Li380    10.0   .     S
H362     Be363    9.999   .     S
Be363     Li380    10.001   .     S
Be363     Be369    10.001   1_545     S
B364     Li375    9.999   .     S
B364     H365    10.0   .     S
B364     Be366    9.999   .     S
H365     Be366    9.999   .     S
H365     Li375    10.0   .     S
Be366     Li375    10.001   .     S
Be366     Be372    10.001   1_545     S
B367     Li383    9.999   .     S
B367     H368    10.0   .     S
B367     Be369    9.999   .     S
B367     B495    10.003   .     S
H368     Li383    10.0   .     S
H368     Be369    9.999   .     S
Be369     Li383    10.001   .     S
Be369     Be363    10.001   1_565     S
B370     Li378    9.999   .     S
B370     H371    10.0   .     S
B370     Be372    9.999   .     S
H371     Be372    9.999   .     S
H371     Li378    10.0   .     S
Be372     Li378    10.001   .     S
Be372     Be366    10.001   1_565     S
Ti373     Ce377    10.001   .     S
Ti373     He379    10.001   1_545     S
Ti373     He376    10.001   .     S
Ti374     Ce382    10.001   .     S
Ti374     He384    10.001   1_545     S
Ti374     He381    10.001   .     S
Li375     He376    9.999   .     S
He376     Ce377    10.001   .     S
He376     He379    10.001   1_545     S
Ce377     He379    10.001   1_545     S
Ce377     Ce382    10.0   .     S
Li378     He379    9.999   .     S
He379     Ti373    10.001   1_565     S
He379     Ce377    10.001   1_565     S
He379     He376    10.001   1_565     S
Li380     He381    9.999   .     S
He381     Ce382    10.001   .     S
He381     He384    10.001   1_545     S
Ce382     He384    10.001   1_545     S
Li383     He384    9.999   .     S
He384     Ti374    10.001   1_565     S
He384     Ce382    10.001   1_565     S
He384     He381    10.001   1_565     S
V385     S388    10.0   .     S
V385     S387    10.0   .     S
V385     Er389    10.0   .     S
V385     V386    10.001   1_455     S
V386     S452    10.0   .     S
V386     S451    10.0   .     S
V386     Er453    10.0   .     S
V386     V385    10.001   1_655     S
S387     H394    10.0   .     S
S387     S388    10.001   .     S
S387     Er389    9.999   .     S
S388     H403    10.0   .     S
S388     Er389    9.999   .     S
Er389     Ti405    10.001   .     S
S390     H400    10.0   .     S
S390     S391    10.001   .     S
S390     Er392    9.999   .     S
S390     V417    10.0   .     S
S391     H397    10.0   .     S
S391     Er392    9.999   .     S
S391     V417    10.0   .     S
Er392     Ti406    10.001   .     S
Er392     V417    10.0   .     S
B393     Li407    9.999   .     S
B393     H394    10.0   .     S
B393     Be395    9.999   .     S
B393     B751    10.003   .     S
H394     Li407    10.0   .     S
H394     Be395    9.999   .     S
Be395     Li407    10.001   .     S
Be395     Be404    10.001   .     S
B396     Li415    9.999   .     S
B396     H397    10.0   .     S
B396     Be398    9.999   .     S
H397     Li415    10.0   .     S
H397     Be398    9.999   .     S
Be398     Li415    10.001   .     S
Be398     Be401    10.001   .     S
B399     Li412    9.999   .     S
B399     H400    10.0   .     S
B399     Be401    9.999   .     S
H400     Li412    10.0   .     S
H400     Be401    9.999   .     S
Be401     Li412    10.001   .     S
B402     Li410    9.999   .     S
B402     H403    10.0   .     S
B402     Be404    9.999   .     S
B402     B654    10.003   .     S
H403     Li410    10.0   .     S
H403     Be404    9.999   .     S
Be404     Li410    10.001   .     S
Ti405     Ce409    10.001   .     S
Ti405     He408    10.001   .     S
Ti405     He411    10.001   .     S
Ti406     Ce414    10.001   .     S
Ti406     He413    10.001   .     S
Ti406     He416    10.001   .     S
Li407     He408    9.999   .     S
He408     Ce409    10.001   .     S
He408     He411    10.001   .     S
Ce409     He411    10.001   .     S
Ce409     Ce414    10.0   .     S
Li410     He411    9.999   .     S
Li412     He413    9.999   .     S
He413     Ce414    10.001   .     S
He413     He416    10.001   .     S
Ce414     He416    10.001   .     S
Li415     He416    9.999   .     S
V417     V418    10.001   1_545     S
V418     S420    10.0   .     S
V418     S419    10.0   .     S
V418     Er421    10.0   .     S
V418     V417    10.001   1_565     S
S419     H432    10.0   .     S
S419     S420    10.001   .     S
S419     Er421    9.999   .     S
S420     H435    10.0   .     S
S420     Er421    9.999   .     S
Er421     Ti437    10.001   .     S
S422     H429    10.0   .     S
S422     S423    10.001   .     S
S422     Er424    9.999   .     S
S422     V449    10.0   .     S
S423     H426    10.0   .     S
S423     Er424    9.999   .     S
S423     V449    10.0   .     S
Er424     Ti438    10.001   .     S
Er424     V449    10.0   .     S
B425     Li447    9.999   .     S
B425     H426    10.0   .     S
B425     Be427    9.999   .     S
B425     B716    10.003   .     S
H426     Be427    9.999   .     S
H426     Li447    10.0   .     S
Be427     Li447    10.001   .     S
Be427     Be430    10.001   .     S
B428     Li444    9.999   .     S
B428     H429    10.0   .     S
B428     Be430    9.999   .     S
B428     B683    10.003   .     S
H429     Be430    9.999   .     S
H429     Li444    10.0   .     S
Be430     Li444    10.001   .     S
B431     Li439    9.999   .     S
B431     H432    10.0   .     S
B431     Be433    9.999   .     S
H432     Be433    9.999   .     S
H432     Li439    10.0   .     S
Be433     Li439    10.001   .     S
Be433     Be436    10.001   .     S
B434     Li442    9.999   .     S
B434     H435    10.0   .     S
B434     Be436    9.999   .     S
H435     Be436    9.999   .     S
H435     Li442    10.0   .     S
Be436     Li442    10.001   .     S
Ti437     Ce441    10.001   .     S
Ti437     He440    10.001   .     S
Ti437     He443    10.001   .     S
Ti438     Ce446    10.001   .     S
Ti438     He445    10.001   .     S
Ti438     He448    10.001   .     S
Li439     He440    9.999   .     S
He440     Ce441    10.001   .     S
He440     He443    10.001   .     S
Ce441     He443    10.001   .     S
Ce441     Ce446    10.0   .     S
Li442     He443    9.999   .     S
Li444     He445    9.999   .     S
He445     Ce446    10.001   .     S
He445     He448    10.001   .     S
Ce446     He448    10.001   .     S
Li447     He448    9.999   .     S
V449     V450    10.001   1_455     S
V450     S484    10.0   .     S
V450     S483    10.0   .     S
V450     Er485    10.0   .     S
V450     V449    10.001   1_655     S
S451     H467    10.0   .     S
S451     S452    10.001   .     S
S451     Er453    9.999   .     S
S452     H464    10.0   .     S
S452     Er453    9.999   .     S
Er453     Ti469    10.001   .     S
S454     H458    10.0   .     S
S454     S455    10.001   .     S
S454     Er456    9.999   .     S
S454     V481    10.0   .     S
S455     H461    10.0   .     S
S455     Er456    9.999   .     S
S455     V481    10.0   .     S
Er456     Ti470    10.001   .     S
Er456     V481    10.0   .     S
B457     Li476    9.999   .     S
B457     H458    10.0   .     S
B457     Be459    9.999   .     S
H458     Be459    9.999   .     S
H458     Li476    10.0   .     S
Be459     Li476    10.001   .     S
Be459     Be462    10.001   .     S
B460     Li479    9.999   .     S
B460     H461    10.0   .     S
B460     Be462    9.999   .     S
H461     Be462    9.999   .     S
H461     Li479    10.0   .     S
Be462     Li479    10.001   .     S
B463     Li474    9.999   .     S
B463     H464    10.0   .     S
B463     Be465    9.999   .     S
B463     B754    10.003   .     S
H464     Be465    9.999   .     S
H464     Li474    10.0   .     S
Be465     Li474    10.001   .     S
Be465     Be468    10.001   .     S
B466     Li471    9.999   .     S
B466     H467    10.0   .     S
B466     Be468    9.999   .     S
B466     B657    10.003   .     S
H467     Be468    9.999   .     S
H467     Li471    10.0   .     S
Be468     Li471    10.001   .     S
Ti469     Ce473    10.001   .     S
Ti469     He472    10.001   .     S
Ti469     He475    10.001   .     S
Ti470     Ce478    10.001   .     S
Ti470     He477    10.001   .     S
Ti470     He480    10.001   .     S
Li471     He472    9.999   .     S
He472     Ce473    10.001   .     S
He472     He475    10.001   .     S
Ce473     He475    10.001   .     S
Ce473     Ce478    10.0   .     S
Li474     He475    9.999   .     S
Li476     He477    9.999   .     S
He477     Ce478    10.001   .     S
He477     He480    10.001   .     S
Ce478     He480    10.001   .     S
Li479     He480    9.999   .     S
V481     V482    10.001   1_545     S
V482     S487    10.0   .     S
V482     S486    10.0   .     S
V482     Er488    10.0   .     S
V482     V481    10.001   1_565     S
S483     H493    10.0   .     S
S483     S484    10.001   .     S
S483     Er485    9.999   .     S
S484     H499    10.0   .     S
S484     Er485    9.999   .     S
Er485     Ti501    10.001   .     S
S486     H496    10.0   .     S
S486     S487    10.001   .     S
S486     Er488    9.999   .     S
S487     H490    10.0   .     S
S487     Er488    9.999   .     S
Er488     Ti502    10.001   .     S
B489     Li506    9.999   .     S
B489     H490    10.0   .     S
B489     Be491    9.999   .     S
H490     Be491    9.999   .     S
H490     Li506    10.0   .     S
Be491     Li506    10.001   .     S
Be491     Be497    10.001   .     S
B492     Li511    9.999   .     S
B492     H493    10.0   .     S
B492     Be494    9.999   .     S
B492     B719    10.003   .     S
H493     Be494    9.999   .     S
H493     Li511    10.0   .     S
Be494     Li511    10.001   .     S
Be494     Be500    10.001   .     S
B495     Li503    9.999   .     S
B495     H496    10.0   .     S
B495     Be497    9.999   .     S
H496     Be497    9.999   .     S
H496     Li503    10.0   .     S
Be497     Li503    10.001   .     S
B498     Li508    9.999   .     S
B498     H499    10.0   .     S
B498     Be500    9.999   .     S
B498     B689    10.003   .     S
H499     Be500    9.999   .     S
H499     Li508    10.0   .     S
Be500     Li508    10.001   .     S
Ti501     Ce510    10.001   .     S
Ti501     He509    10.001   .     S
Ti501     He512    10.001   .     S
Ti502     Ce505    10.001   .     S
Ti502     He504    10.001   .     S
Ti502     He507    10.001   .     S
Li503     He504    9.999   .     S
He504     Ce505    10.001   .     S
He504     He507    10.001   .     S
Ce505     He507    10.001   .     S
Ce505     Ce510    10.0   .     S
Li506     He507    9.999   .     S
Li508     He509    9.999   .     S
He509     Ce510    10.001   .     S
He509     He512    10.001   .     S
Ce510     He512    10.001   .     S
Li511     He512    9.999   .     S
V513     S516    10.0   .     S
V513     S515    10.0   .     S
V513     Er517    10.0   .     S
V513     V514    10.001   1_455     S
V514     S580    10.0   .     S
V514     S579    10.0   .     S
V514     Er581    10.0   .     S
V514     V513    10.001   1_655     S
S515     H528    10.0   .     S
S515     S516    10.001   .     S
S515     Er517    9.999   .     S
S516     H525    10.0   .     S
S516     Er517    9.999   .     S
Er517     Ti533    10.001   .     S
S518     H522    10.0   .     S
S518     S519    10.001   .     S
S518     Er520    9.999   .     S
S518     V545    10.0   .     S
S519     H531    10.0   .     S
S519     Er520    9.999   .     S
S519     V545    10.0   .     S
Er520     Ti534    10.001   .     S
Er520     V545    10.0   .     S
B521     Li540    9.999   .     S
B521     H522    10.0   .     S
B521     Be523    9.999   .     S
H522     Li540    10.0   .     S
H522     Be523    9.999   .     S
Be523     Li540    10.001   .     S
Be523     Be532    10.001   .     S
B524     Li538    9.999   .     S
B524     H525    10.0   .     S
B524     Be526    9.999   .     S
B524     B686    10.003   .     S
H525     Li538    10.0   .     S
H525     Be526    9.999   .     S
Be526     Li538    10.001   .     S
Be526     Be529    10.001   .     S
B527     Li535    9.999   .     S
B527     H528    10.0   .     S
B527     Be529    9.999   .     S
B527     B651    10.003   .     S
H528     Li535    10.0   .     S
H528     Be529    9.999   .     S
Be529     Li535    10.001   .     S
B530     Li543    9.999   .     S
B530     H531    10.0   .     S
B530     Be532    9.999   .     S
H531     Li543    10.0   .     S
H531     Be532    9.999   .     S
Be532     Li543    10.001   .     S
Ti533     Ce537    10.001   .     S
Ti533     He536    10.001   .     S
Ti533     He539    10.001   .     S
Ti534     Ce542    10.001   .     S
Ti534     He541    10.001   .     S
Ti534     He544    10.001   .     S
Li535     He536    9.999   .     S
He536     Ce537    10.001   .     S
He536     He539    10.001   .     S
Ce537     He539    10.001   .     S
Ce537     Ce542    10.0   .     S
Li538     He539    9.999   .     S
Li540     He541    9.999   .     S
He541     Ce542    10.001   .     S
He541     He544    10.001   .     S
Ce542     He544    10.001   .     S
Li543     He544    9.999   .     S
V545     V546    10.001   1_554     S
V546     S548    10.0   .     S
V546     S547    10.0   .     S
V546     Er549    10.0   .     S
V546     V545    10.001   1_556     S
S547     H563    10.0   .     S
S547     S548    10.001   .     S
S547     Er549    9.999   .     S
S548     H560    10.0   .     S
S548     Er549    9.999   .     S
Er549     Ti565    10.001   .     S
S550     H554    10.0   .     S
S550     S551    10.001   .     S
S550     Er552    9.999   .     S
S550     V577    10.0   .     S
S551     H557    10.0   .     S
S551     Er552    9.999   .     S
S551     V577    10.0   .     S
Er552     Ti566    10.001   .     S
Er552     V577    10.0   .     S
B553     Li572    9.999   .     S
B553     H554    10.0   .     S
B553     Be555    9.999   .     S
B553     B713    10.003   .     S
H554     Be555    9.999   .     S
H554     Li572    10.0   .     S
Be555     Li572    10.001   .     S
Be555     Be558    10.001   .     S
B556     Li575    9.999   .     S
B556     H557    10.0   .     S
B556     Be558    9.999   .     S
B556     B745    10.003   .     S
H557     Be558    9.999   .     S
H557     Li575    10.0   .     S
Be558     Li575    10.001   .     S
B559     Li570    9.999   .     S
B559     H560    10.0   .     S
B559     Be561    9.999   .     S
H560     Be561    9.999   .     S
H560     Li570    10.0   .     S
Be561     Li570    10.001   .     S
Be561     Be564    10.001   .     S
B562     Li567    9.999   .     S
B562     H563    10.0   .     S
B562     Be564    9.999   .     S
H563     Be564    9.999   .     S
H563     Li567    10.0   .     S
Be564     Li567    10.001   .     S
Ti565     Ce569    10.001   .     S
Ti565     He568    10.001   .     S
Ti565     He571    10.001   .     S
Ti566     Ce574    10.001   .     S
Ti566     He573    10.001   .     S
Ti566     He576    10.001   .     S
Li567     He568    9.999   .     S
He568     Ce569    10.001   .     S
He568     He571    10.001   .     S
Ce569     He571    10.001   .     S
Ce569     Ce574    10.0   .     S
Li570     He571    9.999   .     S
Li572     He573    9.999   .     S
He573     Ce574    10.001   .     S
He573     He576    10.001   .     S
Ce574     He576    10.001   .     S
Li575     He576    9.999   .     S
V577     V578    10.001   1_455     S
V578     S612    10.0   .     S
V578     S611    10.0   .     S
V578     Er613    10.0   .     S
V578     V577    10.001   1_655     S
S579     H592    10.0   .     S
S579     S580    10.001   .     S
S579     Er581    9.999   .     S
S580     H595    10.0   .     S
S580     Er581    9.999   .     S
Er581     Ti597    10.001   .     S
S582     H589    10.0   .     S
S582     S583    10.001   .     S
S582     Er584    9.999   .     S
S582     V609    10.0   .     S
S583     H586    10.0   .     S
S583     Er584    9.999   .     S
S583     V609    10.0   .     S
Er584     Ti598    10.001   .     S
Er584     V609    10.0   .     S
B585     Li607    9.999   .     S
B585     H586    10.0   .     S
B585     Be587    9.999   .     S
H586     Be587    9.999   .     S
H586     Li607    10.0   .     S
Be587     Li607    10.001   .     S
Be587     Be590    10.001   .     S
B588     Li604    9.999   .     S
B588     H589    10.0   .     S
B588     Be590    9.999   .     S
H589     Be590    9.999   .     S
H589     Li604    10.0   .     S
Be590     Li604    10.001   .     S
B591     Li599    9.999   .     S
B591     H592    10.0   .     S
B591     Be593    9.999   .     S
B591     B692    10.003   .     S
H592     Be593    9.999   .     S
H592     Li599    10.0   .     S
Be593     Li599    10.001   .     S
Be593     Be596    10.001   .     S
B594     Li602    9.999   .     S
B594     H595    10.0   .     S
B594     Be596    9.999   .     S
B594     B660    10.003   .     S
H595     Be596    9.999   .     S
H595     Li602    10.0   .     S
Be596     Li602    10.001   .     S
Ti597     Ce601    10.001   .     S
Ti597     He600    10.001   .     S
Ti597     He603    10.001   .     S
Ti598     Ce606    10.001   .     S
Ti598     He605    10.001   .     S
Ti598     He608    10.001   .     S
Li599     He600    9.999   .     S
He600     Ce601    10.001   .     S
He600     He603    10.001   .     S
Ce601     He603    10.001   .     S
Ce601     Ce606    10.0   .     S
Li602     He603    9.999   .     S
Li604     He605    9.999   .     S
He605     Ce606    10.001   .     S
He605     He608    10.001   .     S
Ce606     He608    10.001   .     S
Li607     He608    9.999   .     S
V609     V610    10.001   1_554     S
V610     S615    10.0   .     S
V610     S614    10.0   .     S
V610     Er616    10.0   .     S
V610     V609    10.001   1_556     S
S611     H624    10.0   .     S
S611     S612    10.001   .     S
S611     Er613    9.999   .     S
S612     H621    10.0   .     S
S612     Er613    9.999   .     S
Er613     Ti629    10.001   .     S
S614     H618    10.0   .     S
S614     S615    10.001   .     S
S614     Er616    9.999   .     S
S615     H627    10.0   .     S
S615     Er616    9.999   .     S
Er616     Ti630    10.001   .     S
B617     Li631    9.999   .     S
B617     H618    10.0   .     S
B617     Be619    9.999   .     S
H618     Be619    9.999   .     S
H618     Li631    10.0   .     S
Be619     Li631    10.001   .     S
Be619     Be628    10.001   .     S
B620     Li639    9.999   .     S
B620     H621    10.0   .     S
B620     Be622    9.999   .     S
B620     B722    10.003   .     S
H621     Be622    9.999   .     S
H621     Li639    10.0   .     S
Be622     Li639    10.001   .     S
Be622     Be625    10.001   .     S
B623     Li636    9.999   .     S
B623     H624    10.0   .     S
B623     Be625    9.999   .     S
B623     B748    10.003   .     S
H624     Be625    9.999   .     S
H624     Li636    10.0   .     S
Be625     Li636    10.001   .     S
B626     Li634    9.999   .     S
B626     H627    10.0   .     S
B626     Be628    9.999   .     S
H627     Be628    9.999   .     S
H627     Li634    10.0   .     S
Be628     Li634    10.001   .     S
Ti629     Ce638    10.001   .     S
Ti629     He637    10.001   .     S
Ti629     He640    10.001   .     S
Ti630     Ce633    10.001   .     S
Ti630     He632    10.001   .     S
Ti630     He635    10.001   .     S
Li631     He632    9.999   .     S
He632     Ce633    10.001   .     S
He632     He635    10.001   .     S
Ce633     He635    10.001   .     S
Ce633     Ce638    10.0   .     S
Li634     He635    9.999   .     S
Li636     He637    9.999   .     S
He637     Ce638    10.001   .     S
He637     He640    10.001   .     S
Ce638     He640    10.001   .     S
Li639     He640    9.999   .     S
V641     S677    10.0   .     S
V641     S679    10.0   1_455     S
V641     Er678    10.0   .     S
V641     V642    10.001   .     S
V642     S646    10.0   .     S
V642     S645    10.0   1_455     S
V642     Er647    10.0   .     S
V643     S739    10.0   .     S
V643     S741    10.0   1_455     S
V643     Er740    10.0   .     S
V643     V644    10.001   .     S
V644     S649    10.0   .     S
V644     S648    10.0   1_455     S
V644     Er650    10.0   .     S
S645     V642    10.0   1_655     S
S645     H661    10.0   .     S
S645     Er647    9.999   1_655     S
S645     S646    10.001   1_655     S
S646     H652    10.0   .     S
S646     Er647    9.999   .     S
S646     S645    10.001   1_455     S
Er647     S645    9.999   1_455     S
Er647     Ti663    10.001   .     S
S648     V644    10.0   1_655     S
S648     H658    10.0   .     S
S648     Er650    9.999   1_655     S
S648     S649    10.001   1_655     S
S649     H655    10.0   .     S
S649     Er650    9.999   .     S
S649     S648    10.001   1_455     S
Er650     S648    9.999   1_455     S
Er650     Ti664    10.001   .     S
B651     Li665    9.999   .     S
B651     H652    10.0   .     S
B651     Be653    9.999   .     S
H652     Li665    10.0   .     S
H652     Be653    9.999   .     S
Be653     Li665    10.001   .     S
Be653     Be662    10.001   1_455     S
B654     Li670    9.999   .     S
B654     H655    10.0   .     S
B654     Be656    9.999   .     S
H655     Li670    10.0   .     S
H655     Be656    9.999   .     S
Be656     Li670    10.001   .     S
Be656     Be659    10.001   1_455     S
B657     Li673    9.999   .     S
B657     H658    10.0   .     S
B657     Be659    9.999   .     S
H658     Li673    10.0   .     S
H658     Be659    9.999   .     S
Be659     Li673    10.001   .     S
Be659     Be656    10.001   1_655     S
B660     Li668    9.999   .     S
B660     H661    10.0   .     S
B660     Be662    9.999   .     S
H661     Li668    10.0   .     S
H661     Be662    9.999   .     S
Be662     Li668    10.001   .     S
Be662     Be653    10.001   1_655     S
Ti663     Ce667    10.001   .     S
Ti663     He669    10.001   1_455     S
Ti663     He666    10.001   .     S
Ti664     Ce672    10.001   .     S
Ti664     He674    10.001   1_455     S
Ti664     He671    10.001   .     S
Li665     He666    9.999   .     S
He666     Ce667    10.001   .     S
He666     He669    10.001   1_455     S
Ce667     He669    10.001   1_455     S
Ce667     Ce672    10.0   .     S
Li668     He669    9.999   .     S
He669     Ti663    10.001   1_655     S
He669     Ce667    10.001   1_655     S
He669     He666    10.001   1_655     S
Li670     He671    9.999   .     S
He671     Ce672    10.001   .     S
He671     He674    10.001   1_455     S
Ce672     He674    10.001   1_455     S
Li673     He674    9.999   .     S
He674     Ti664    10.001   1_655     S
He674     Ce672    10.001   1_655     S
He674     He671    10.001   1_655     S
V675     S681    10.0   .     S
V675     S680    10.0   1_455     S
V675     Er682    10.0   .     S
V675     V676    10.001   .     S
V676     S707    10.0   .     S
V676     S709    10.0   1_455     S
V676     Er708    10.0   .     S
S677     H687    10.0   .     S
S677     Er678    9.999   .     S
S677     S679    10.001   1_455     S
Er678     S679    9.999   1_455     S
Er678     Ti695    10.001   .     S
S679     V641    10.0   1_655     S
S679     H693    10.0   .     S
S679     Er678    9.999   1_655     S
S679     S677    10.001   1_655     S
S680     V675    10.0   1_655     S
S680     H690    10.0   .     S
S680     Er682    9.999   1_655     S
S680     S681    10.001   1_655     S
S681     H684    10.0   .     S
S681     S680    10.001   1_455     S
S681     Er682    9.999   .     S
Er682     S680    9.999   1_455     S
Er682     Ti696    10.001   .     S
B683     Li702    9.999   .     S
B683     H684    10.0   .     S
B683     Be685    9.999   .     S
H684     Li702    10.0   .     S
H684     Be685    9.999   .     S
Be685     Li702    10.001   .     S
Be685     Be691    10.001   1_455     S
B686     Li697    9.999   .     S
B686     H687    10.0   .     S
B686     Be688    9.999   .     S
H687     Be688    9.999   .     S
H687     Li697    10.0   .     S
Be688     Li697    10.001   .     S
Be688     Be694    10.001   1_455     S
B689     Li705    9.999   .     S
B689     H690    10.0   .     S
B689     Be691    9.999   .     S
H690     Li705    10.0   .     S
H690     Be691    9.999   .     S
Be691     Li705    10.001   .     S
Be691     Be685    10.001   1_655     S
B692     Li700    9.999   .     S
B692     H693    10.0   .     S
B692     Be694    9.999   .     S
H693     Be694    9.999   .     S
H693     Li700    10.0   .     S
Be694     Li700    10.001   .     S
Be694     Be688    10.001   1_655     S
Ti695     Ce699    10.001   .     S
Ti695     He701    10.001   1_455     S
Ti695     He698    10.001   .     S
Ti696     Ce704    10.001   .     S
Ti696     He706    10.001   1_455     S
Ti696     He703    10.001   .     S
Li697     He698    9.999   .     S
He698     Ce699    10.001   .     S
He698     He701    10.001   1_455     S
Ce699     He701    10.001   1_455     S
Ce699     Ce704    10.0   .     S
Li700     He701    9.999   .     S
He701     Ti695    10.001   1_655     S
He701     Ce699    10.001   1_655     S
He701     He698    10.001   1_655     S
Li702     He703    9.999   .     S
He703     Ce704    10.001   .     S
He703     He706    10.001   1_455     S
Ce704     He706    10.001   1_455     S
Li705     He706    9.999   .     S
He706     Ti696    10.001   1_655     S
He706     Ce704    10.001   1_655     S
He706     He703    10.001   1_655     S
S707     H717    10.0   .     S
S707     Er708    9.999   .     S
S707     S709    10.001   1_455     S
Er708     S709    9.999   1_455     S
Er708     Ti726    10.001   .     S
S709     V676    10.0   1_655     S
S709     H720    10.0   .     S
S709     Er708    9.999   1_655     S
S709     S707    10.001   1_655     S
S710     H714    10.0   .     S
S710     Er712    9.999   .     S
S710     S711    10.001   1_455     S
S710     V737    10.0   .     S
S711     H723    10.0   .     S
S711     Er712    9.999   1_655     S
S711     S710    10.001   1_655     S
S711     V737    10.0   1_655     S
Er712     S711    9.999   1_455     S
Er712     Ti725    10.001   .     S
Er712     V737    10.0   .     S
B713     Li732    9.999   .     S
B713     H714    10.0   .     S
B713     Be715    9.999   .     S
H714     Be715    9.999   .     S
H714     Li732    10.0   .     S
Be715     Li732    10.001   .     S
Be715     Be724    10.001   1_455     S
B716     Li727    9.999   .     S
B716     H717    10.0   .     S
B716     Be718    9.999   .     S
H717     Be718    9.999   .     S
H717     Li727    10.0   .     S
Be718     Li727    10.001   .     S
Be718     Be721    10.001   1_455     S
B719     Li730    9.999   .     S
B719     H720    10.0   .     S
B719     Be721    9.999   .     S
H720     Be721    9.999   .     S
H720     Li730    10.0   .     S
Be721     Li730    10.001   .     S
Be721     Be718    10.001   1_655     S
B722     Li735    9.999   .     S
B722     H723    10.0   .     S
B722     Be724    9.999   .     S
H723     Be724    9.999   .     S
H723     Li735    10.0   .     S
Be724     Li735    10.001   .     S
Be724     Be715    10.001   1_655     S
Ti725     Ce734    10.001   .     S
Ti725     He736    10.001   1_455     S
Ti725     He733    10.001   .     S
Ti726     Ce729    10.001   .     S
Ti726     He731    10.001   1_455     S
Ti726     He728    10.001   .     S
Li727     He728    9.999   .     S
He728     Ce729    10.001   .     S
He728     He731    10.001   1_455     S
Ce729     He731    10.001   1_455     S
Ce729     Ce734    10.0   .     S
Li730     He731    9.999   .     S
He731     Ti726    10.001   1_655     S
He731     Ce729    10.001   1_655     S
He731     He728    10.001   1_655     S
Li732     He733    9.999   .     S
He733     Ce734    10.001   .     S
He733     He736    10.001   1_455     S
Ce734     He736    10.001   1_455     S
Li735     He736    9.999   .     S
He736     Ti725    10.001   1_655     S
He736     Ce734    10.001   1_655     S
He736     He733    10.001   1_655     S
V737     S711    10.0   1_455     S
V737     V738    10.001   .     S
V738     S743    10.0   .     S
V738     S742    10.0   1_455     S
V738     Er744    10.0   .     S
S739     H752    10.0   .     S
S739     Er740    9.999   .     S
S739     S741    10.001   1_455     S
Er740     S741    9.999   1_455     S
Er740     Ti757    10.001   .     S
S741     V643    10.0   1_655     S
S741     H755    10.0   .     S
S741     Er740    9.999   1_655     S
S741     S739    10.001   1_655     S
S742     V738    10.0   1_655     S
S742     H749    10.0   .     S
S742     Er744    9.999   1_655     S
S742     S743    10.001   1_655     S
S743     H746    10.0   .     S
S743     Er744    9.999   .     S
S743     S742    10.001   1_455     S
Er744     S742    9.999   1_455     S
Er744     Ti758    10.001   .     S
B745     Li759    9.999   .     S
B745     H746    10.0   .     S
B745     Be747    9.999   .     S
H746     Li759    10.0   .     S
H746     Be747    9.999   .     S
Be747     Li759    10.001   .     S
Be747     Be750    10.001   1_455     S
B748     Li762    9.999   .     S
B748     H749    10.0   .     S
B748     Be750    9.999   .     S
H749     Li762    10.0   .     S
H749     Be750    9.999   .     S
Be750     Li762    10.001   .     S
Be750     Be747    10.001   1_655     S
B751     Li764    9.999   .     S
B751     H752    10.0   .     S
B751     Be753    9.999   .     S
H752     Be753    9.999   .     S
H752     Li764    10.0   .     S
Be753     Li764    10.001   .     S
Be753     Be756    10.001   1_455     S
B754     Li767    9.999   .     S
B754     H755    10.0   .     S
B754     Be756    9.999   .     S
H755     Be756    9.999   .     S
H755     Li767    10.0   .     S
Be756     Li767    10.001   .     S
Be756     Be753    10.001   1_655     S
Ti757     Ce766    10.001   .     S
Ti757     He768    10.001   1_455     S
Ti757     He765    10.001   .     S
Ti758     Ce761    10.001   .     S
Ti758     He763    10.001   1_455     S
Ti758     He760    10.001   .     S
Li759     He760    9.999   .     S
He760     Ce761    10.001   .     S
He760     He763    10.001   1_455     S
Ce761     He763    10.001   1_455     S
Ce761     Ce766    10.0   .     S
Li762     He763    9.999   .     S
He763     Ti758    10.001   1_655     S
He763     Ce761    10.001   1_655     S
He763     He760    10.001   1_655     S
Li764     He765    9.999   .     S
He765     Ce766    10.001   .     S
He765     He768    10.001   1_455     S
Ce766     He768    10.001   1_455     S
Li767     He768    9.999   .     S
He768     Ti757    10.001   1_655     S
He768     Ce766    10.001   1_655     S
He768     He765    10.001   1_655     S
