data_soda
_audit_creation_date              2020-02-02
_audit_creation_method            'Pymatgen'
_symmetry_space_group_name_H-M    'P1'
_symmetry_Int_Tables_number       1
loop_
_symmetry_equiv_pos_as_xyz
  x,y,z
_cell_length_a                    62.4264
_cell_length_b                    62.4264
_cell_length_c                    62.4264
_cell_angle_alpha                 90.0
_cell_angle_beta                 90.0
_cell_angle_gamma                 90.0
loop_
_atom_site_label
_atom_site_type_symbol
_atom_site_fract_x
_atom_site_fract_y
_atom_site_fract_z
V1     V     0.1934   0.0801   0.5
V2     V     0.1934   0.9199   0.5
V3     V     0.0801   0.1934   0.5
V4     V     0.9199   0.1934   0.5
V5     V     0.0801   0.8066   0.5
V6     V     0.9199   0.8066   0.5
V7     V     0.8066   0.0801   0.5
V8     V     0.8066   0.9199   0.5
V9     V     0.3066   0.0   0.4199
V10     V     0.3066   0.0   0.5801
V11     V     0.4199   0.0   0.6934
V12     V     0.5801   0.0   0.6934
V13     V     0.6934   0.0   0.4199
V14     V     0.6934   0.0   0.5801
V15     V     0.4199   0.0   0.3066
V16     V     0.5801   0.0   0.3066
V17     V     0.5   0.0801   0.1934
V18     V     0.5   0.9199   0.1934
V19     V     0.5   0.1934   0.0801
V20     V     0.5   0.1934   0.9199
V21     V     0.5   0.8066   0.0801
V22     V     0.5   0.8066   0.9199
V23     V     0.5   0.0801   0.8066
V24     V     0.5   0.9199   0.8066
V25     V     0.4199   0.3066   0.0
V26     V     0.5801   0.3066   0.0
V27     V     0.6934   0.4199   0.0
V28     V     0.6934   0.5801   0.0
V29     V     0.4199   0.6934   0.0
V30     V     0.5801   0.6934   0.0
V31     V     0.3066   0.4199   0.0
V32     V     0.3066   0.5801   0.0
V33     V     0.1934   0.5   0.0801
V34     V     0.1934   0.5   0.9199
V35     V     0.0801   0.5   0.1934
V36     V     0.9199   0.5   0.1934
V37     V     0.0801   0.5   0.8066
V38     V     0.9199   0.5   0.8066
V39     V     0.8066   0.5   0.0801
V40     V     0.8066   0.5   0.9199
V41     V     0.0   0.3066   0.4199
V42     V     0.0   0.3066   0.5801
V43     V     0.0   0.4199   0.6934
V44     V     0.0   0.5801   0.6934
V45     V     0.0   0.6934   0.4199
V46     V     0.0   0.6934   0.5801
V47     V     0.0   0.4199   0.3066
V48     V     0.0   0.5801   0.3066
loop_
_geom_bond_atom_site_label_1
_geom_bond_atom_site_label_2
_geom_bond_distance
_geom_bond_site_symmetry_2
_ccdc_geom_bond_type
V1     V2    9.999   1_545     S
V1     V3    10.0   .     S
V1     V10    10.0   .     S
V1     V9    10.0   .     S
V2     V1    9.999   1_565     S
V2     V5    10.0   .     S
V2     V10    10.0   1_565     S
V2     V9    10.0   1_565     S
V3     V4    9.999   1_455     S
V3     V42    10.0   .     S
V3     V41    10.0   .     S
V4     V3    9.999   1_655     S
V4     V7    10.0   .     S
V4     V42    10.0   1_655     S
V4     V41    10.0   1_655     S
V5     V6    9.999   1_455     S
V5     V46    10.0   .     S
V5     V45    10.0   .     S
V6     V5    9.999   1_655     S
V6     V8    10.0   .     S
V6     V46    10.0   1_655     S
V6     V45    10.0   1_655     S
V7     V8    9.999   1_545     S
V7     V14    10.0   .     S
V7     V13    10.0   .     S
V8     V7    9.999   1_565     S
V8     V14    10.0   1_565     S
V8     V13    10.0   1_565     S
V9     V10    9.999   .     S
V9     V15    10.0   .     S
V9     V2    10.0   1_545     S
V10     V2    10.0   1_545     S
V10     V11    10.0   .     S
V11     V12    9.999   .     S
V11     V23    10.0   .     S
V11     V24    10.0   1_545     S
V12     V14    10.0   .     S
V12     V23    10.0   .     S
V12     V24    10.0   1_545     S
V13     V14    9.999   .     S
V13     V16    10.0   .     S
V13     V8    10.0   1_545     S
V14     V8    10.0   1_545     S
V15     V16    9.999   .     S
V15     V18    10.0   1_545     S
V15     V17    10.0   .     S
V16     V17    10.0   .     S
V16     V18    10.0   1_545     S
V17     V18    9.999   1_545     S
V17     V19    10.0   .     S
V18     V15    10.0   1_565     S
V18     V17    9.999   1_565     S
V18     V21    10.0   .     S
V18     V16    10.0   1_565     S
V19     V20    9.999   1_554     S
V19     V26    10.0   .     S
V19     V25    10.0   .     S
V20     V19    9.999   1_556     S
V20     V23    10.0   .     S
V20     V26    10.0   1_556     S
V20     V25    10.0   1_556     S
V21     V22    9.999   1_554     S
V21     V30    10.0   .     S
V21     V29    10.0   .     S
V22     V21    9.999   1_556     S
V22     V24    10.0   .     S
V22     V30    10.0   1_556     S
V22     V29    10.0   1_556     S
V23     V24    9.999   1_545     S
V24     V23    9.999   1_565     S
V24     V12    10.0   1_565     S
V24     V11    10.0   1_565     S
V25     V26    9.999   .     S
V25     V31    10.0   .     S
V25     V20    10.0   1_554     S
V26     V20    10.0   1_554     S
V26     V27    10.0   .     S
V27     V28    9.999   .     S
V27     V39    10.0   .     S
V27     V40    10.0   1_554     S
V28     V30    10.0   .     S
V28     V39    10.0   .     S
V28     V40    10.0   1_554     S
V29     V30    9.999   .     S
V29     V32    10.0   .     S
V29     V22    10.0   1_554     S
V30     V22    10.0   1_554     S
V31     V32    9.999   .     S
V31     V34    10.0   1_554     S
V31     V33    10.0   .     S
V32     V33    10.0   .     S
V32     V34    10.0   1_554     S
V33     V34    9.999   1_554     S
V33     V35    10.0   .     S
V34     V31    10.0   1_556     S
V34     V33    9.999   1_556     S
V34     V37    10.0   .     S
V34     V32    10.0   1_556     S
V35     V36    9.999   1_455     S
V35     V48    10.0   .     S
V35     V47    10.0   .     S
V36     V35    9.999   1_655     S
V36     V39    10.0   .     S
V36     V48    10.0   1_655     S
V36     V47    10.0   1_655     S
V37     V38    9.999   1_455     S
V37     V44    10.0   .     S
V37     V43    10.0   .     S
V38     V37    9.999   1_655     S
V38     V40    10.0   .     S
V38     V44    10.0   1_655     S
V38     V43    10.0   1_655     S
V39     V40    9.999   1_554     S
V40     V39    9.999   1_556     S
V40     V28    10.0   1_556     S
V40     V27    10.0   1_556     S
V41     V42    9.999   .     S
V41     V47    10.0   .     S
V41     V4    10.0   1_455     S
V42     V4    10.0   1_455     S
V42     V43    10.0   .     S
V43     V44    9.999   .     S
V43     V38    10.0   1_455     S
V44     V46    10.0   .     S
V44     V38    10.0   1_455     S
V45     V46    9.999   .     S
V45     V48    10.0   .     S
V45     V6    10.0   1_455     S
V46     V6    10.0   1_455     S
V47     V48    9.999   .     S
V47     V36    10.0   1_455     S
V48     V36    10.0   1_455     S
