data_sodf
_audit_creation_date              2020-02-02
_audit_creation_method            'Pymatgen'
_symmetry_space_group_name_H-M    'P1'
_symmetry_Int_Tables_number       1
loop_
_symmetry_equiv_pos_as_xyz
  x,y,z
_cell_length_a                    62.9251
_cell_length_b                    62.9251
_cell_length_c                    62.9251
_cell_angle_alpha                 90.0
_cell_angle_beta                 90.0
_cell_angle_gamma                 90.0
loop_
_atom_site_label
_atom_site_type_symbol
_atom_site_fract_x
_atom_site_fract_y
_atom_site_fract_z
V1     V     0.908   0.5   0.7957
V2     V     0.7957   0.5   0.908
V3     V     0.5   0.908   0.7957
V4     V     0.5   0.7957   0.908
V5     V     0.908   0.7957   0.5
V6     V     0.7957   0.908   0.5
V7     V     0.592   0.7043   0.0
V8     V     0.7043   0.592   0.0
V9     V     0.7043   0.0   0.592
V10     V     0.592   0.0   0.7043
V11     V     0.0   0.7043   0.592
V12     V     0.0   0.592   0.7043
V13     V     0.908   0.2043   0.5
V14     V     0.7957   0.092   0.5
V15     V     0.2043   0.908   0.5
V16     V     0.092   0.7957   0.5
V17     V     0.5   0.908   0.2043
V18     V     0.5   0.7957   0.092
V19     V     0.908   0.5   0.2043
V20     V     0.7957   0.5   0.092
V21     V     0.5   0.2043   0.908
V22     V     0.5   0.092   0.7957
V23     V     0.2043   0.5   0.908
V24     V     0.092   0.5   0.7957
V25     V     0.408   0.7043   0.0
V26     V     0.2957   0.592   0.0
V27     V     0.7043   0.0   0.408
V28     V     0.592   0.0   0.2957
V29     V     0.0   0.408   0.7043
V30     V     0.0   0.2957   0.592
V31     V     0.7043   0.408   0.0
V32     V     0.592   0.2957   0.0
V33     V     0.408   0.0   0.2957
V34     V     0.2957   0.0   0.408
V35     V     0.5   0.2043   0.092
V36     V     0.5   0.092   0.2043
V37     V     0.2957   0.408   0.0
V38     V     0.408   0.2957   0.0
V39     V     0.0   0.7043   0.408
V40     V     0.0   0.592   0.2957
V41     V     0.408   0.0   0.7043
V42     V     0.2957   0.0   0.592
V43     V     0.092   0.2043   0.5
V44     V     0.2043   0.092   0.5
V45     V     0.092   0.5   0.2043
V46     V     0.2043   0.5   0.092
V47     V     0.0   0.2957   0.408
V48     V     0.0   0.408   0.2957
loop_
_geom_bond_atom_site_label_1
_geom_bond_atom_site_label_2
_geom_bond_distance
_geom_bond_site_symmetry_2
_ccdc_geom_bond_type
V1     V2    10.0   .     S
V1     V12    10.0   1_655     S
V1     V29    10.0   1_655     S
V2     V31    10.0   1_556     S
V2     V8    10.0   1_556     S
V3     V4    10.0   .     S
V3     V41    10.0   1_565     S
V3     V10    10.0   1_565     S
V4     V7    10.0   1_556     S
V4     V25    10.0   1_556     S
V5     V6    10.0   .     S
V5     V39    10.0   1_655     S
V5     V11    10.0   1_655     S
V6     V9    10.0   1_565     S
V6     V27    10.0   1_565     S
V7     V4    10.0   1_554     S
V7     V8    10.0   .     S
V7     V18    10.0   .     S
V8     V2    10.0   1_554     S
V8     V20    10.0   .     S
V9     V6    10.0   1_545     S
V9     V10    10.0   .     S
V9     V14    10.0   .     S
V10     V3    10.0   1_545     S
V10     V22    10.0   .     S
V11     V5    10.0   1_455     S
V11     V12    10.0   .     S
V11     V16    10.0   .     S
V12     V1    10.0   1_455     S
V12     V24    10.0   .     S
V13     V14    10.0   .     S
V13     V30    10.0   1_655     S
V13     V47    10.0   1_655     S
V14     V27    10.0   .     S
V15     V16    10.0   .     S
V15     V34    10.0   1_565     S
V15     V42    10.0   1_565     S
V16     V39    10.0   .     S
V17     V18    10.0   .     S
V17     V28    10.0   1_565     S
V17     V33    10.0   1_565     S
V18     V25    10.0   .     S
V19     V20    10.0   .     S
V19     V40    10.0   1_655     S
V19     V48    10.0   1_655     S
V20     V31    10.0   .     S
V21     V22    10.0   .     S
V21     V32    10.0   1_556     S
V21     V38    10.0   1_556     S
V22     V41    10.0   .     S
V23     V24    10.0   .     S
V23     V26    10.0   1_556     S
V23     V37    10.0   1_556     S
V24     V29    10.0   .     S
V25     V4    10.0   1_554     S
V25     V26    10.0   .     S
V26     V46    10.0   .     S
V26     V23    10.0   1_554     S
V27     V6    10.0   1_545     S
V27     V28    10.0   .     S
V28     V36    10.0   .     S
V28     V17    10.0   1_545     S
V29     V1    10.0   1_455     S
V29     V30    10.0   .     S
V30     V43    10.0   .     S
V30     V13    10.0   1_455     S
V31     V2    10.0   1_554     S
V31     V32    10.0   .     S
V32     V35    10.0   .     S
V32     V21    10.0   1_554     S
V33     V34    10.0   .     S
V33     V36    10.0   .     S
V33     V17    10.0   1_545     S
V34     V15    10.0   1_545     S
V34     V44    10.0   .     S
V35     V36    10.0   .     S
V35     V38    10.0   .     S
V37     V38    10.0   .     S
V37     V46    10.0   .     S
V37     V23    10.0   1_554     S
V38     V21    10.0   1_554     S
V39     V5    10.0   1_455     S
V39     V40    10.0   .     S
V40     V45    10.0   .     S
V40     V19    10.0   1_455     S
V41     V3    10.0   1_545     S
V41     V42    10.0   .     S
V42     V44    10.0   .     S
V42     V15    10.0   1_545     S
V43     V44    10.0   .     S
V43     V47    10.0   .     S
V45     V46    10.0   .     S
V45     V48    10.0   .     S
V47     V48    10.0   .     S
V47     V13    10.0   1_455     S
V48     V19    10.0   1_455     S
