data_sodt
_audit_creation_date              2020-02-02
_audit_creation_method            'Pymatgen'
_symmetry_space_group_name_H-M    'P1'
_symmetry_Int_Tables_number       1
loop_
_symmetry_equiv_pos_as_xyz
  x,y,z
_cell_length_a                    95.1024
_cell_length_b                    95.1024
_cell_length_c                    95.1024
_cell_angle_alpha                 90.0
_cell_angle_beta                 90.0
_cell_angle_gamma                 90.0
loop_
_atom_site_label
_atom_site_type_symbol
_atom_site_fract_x
_atom_site_fract_y
_atom_site_fract_z
Er1     Er     0.7405   0.0526   0.3338
Er2     Er     0.7405   0.9474   0.3338
Er3     Er     0.6662   0.9474   0.2595
Er4     Er     0.6662   0.0526   0.2595
Ti5     Ti     0.6837   0.8796   0.3906
Ti6     Ti     0.6094   0.8796   0.3163
Ti7     Ti     0.6837   0.1204   0.3906
Ti8     Ti     0.6094   0.1204   0.3163
V9     V     0.5526   0.9474   0.3731
V10     V     0.5526   0.0526   0.3731
V11     V     0.6269   0.0526   0.4474
V12     V     0.6269   0.9474   0.4474
Ti13     Ti     0.6094   0.8796   0.6837
Ti14     Ti     0.6837   0.8796   0.6094
Er15     Er     0.7405   0.9474   0.6662
Er16     Er     0.7405   0.0526   0.6662
Er17     Er     0.6662   0.0526   0.7405
Er18     Er     0.6662   0.9474   0.7405
V19     V     0.6269   0.0526   0.5526
V20     V     0.6269   0.9474   0.5526
V21     V     0.5526   0.9474   0.6269
V22     V     0.5526   0.0526   0.6269
Ti23     Ti     0.6094   0.1204   0.6837
Ti24     Ti     0.6837   0.1204   0.6094
Er25     Er     0.3338   0.9474   0.2595
Er26     Er     0.3338   0.0526   0.2595
Er27     Er     0.2595   0.9474   0.3338
Er28     Er     0.2595   0.0526   0.3338
Ti29     Ti     0.3906   0.8796   0.3163
Ti30     Ti     0.3163   0.8796   0.3906
V31     V     0.4474   0.0526   0.3731
V32     V     0.4474   0.9474   0.3731
V33     V     0.3731   0.9474   0.4474
V34     V     0.3731   0.0526   0.4474
Ti35     Ti     0.3163   0.1204   0.3906
Ti36     Ti     0.3906   0.1204   0.3163
Ti37     Ti     0.3906   0.1204   0.6837
Ti38     Ti     0.3163   0.1204   0.6094
V39     V     0.3731   0.0526   0.5526
V40     V     0.3731   0.9474   0.5526
V41     V     0.4474   0.9474   0.6269
V42     V     0.4474   0.0526   0.6269
Ti43     Ti     0.3906   0.8796   0.6837
Ti44     Ti     0.3163   0.8796   0.6094
Er45     Er     0.3338   0.9474   0.7405
Er46     Er     0.3338   0.0526   0.7405
Er47     Er     0.2595   0.0526   0.6662
Er48     Er     0.2595   0.9474   0.6662
Ti49     Ti     0.6204   0.8163   0.1094
Ti50     Ti     0.6204   0.8906   0.1837
Er51     Er     0.4474   0.8338   0.2405
Er52     Er     0.5526   0.8338   0.2405
Er53     Er     0.4474   0.7595   0.1662
Er54     Er     0.5526   0.7595   0.1662
V55     V     0.4474   0.8731   0.0526
V56     V     0.5526   0.8731   0.0526
V57     V     0.5526   0.9474   0.1269
V58     V     0.4474   0.9474   0.1269
Ti59     Ti     0.3796   0.8163   0.1094
Ti60     Ti     0.3796   0.8906   0.1837
V61     V     0.4474   0.0526   0.1269
V62     V     0.5526   0.0526   0.1269
V63     V     0.4474   0.1269   0.0526
V64     V     0.5526   0.1269   0.0526
Ti65     Ti     0.6204   0.1094   0.1837
Ti66     Ti     0.6204   0.1837   0.1094
Er67     Er     0.5526   0.2405   0.1662
Er68     Er     0.4474   0.2405   0.1662
Er69     Er     0.4474   0.1662   0.2405
Er70     Er     0.5526   0.1662   0.2405
Ti71     Ti     0.3796   0.1837   0.1094
Ti72     Ti     0.3796   0.1094   0.1837
Er73     Er     0.5526   0.8338   0.7595
Er74     Er     0.4474   0.8338   0.7595
Er75     Er     0.4474   0.7595   0.8338
Er76     Er     0.5526   0.7595   0.8338
Ti77     Ti     0.6204   0.8906   0.8163
Ti78     Ti     0.6204   0.8163   0.8906
V79     V     0.4474   0.8731   0.9474
V80     V     0.5526   0.8731   0.9474
V81     V     0.4474   0.9474   0.8731
V82     V     0.5526   0.9474   0.8731
Ti83     Ti     0.3796   0.8163   0.8906
Ti84     Ti     0.3796   0.8906   0.8163
Er85     Er     0.4474   0.2405   0.8338
Er86     Er     0.5526   0.2405   0.8338
Er87     Er     0.4474   0.1662   0.7595
Er88     Er     0.5526   0.1662   0.7595
Ti89     Ti     0.3796   0.1094   0.8163
Ti90     Ti     0.3796   0.1837   0.8906
Ti91     Ti     0.6204   0.1094   0.8163
Ti92     Ti     0.6204   0.1837   0.8906
V93     V     0.4474   0.0526   0.8731
V94     V     0.5526   0.0526   0.8731
V95     V     0.5526   0.1269   0.9474
V96     V     0.4474   0.1269   0.9474
Ti97     Ti     0.6837   0.6094   0.8796
Ti98     Ti     0.6094   0.6837   0.8796
Er99     Er     0.6662   0.7405   0.9474
Er100     Er     0.6662   0.7405   0.0526
Er101     Er     0.7405   0.6662   0.0526
Er102     Er     0.7405   0.6662   0.9474
V103     V     0.6269   0.5526   0.9474
V104     V     0.6269   0.5526   0.0526
V105     V     0.5526   0.6269   0.9474
V106     V     0.5526   0.6269   0.0526
Ti107     Ti     0.6094   0.6837   0.1204
Ti108     Ti     0.6837   0.6094   0.1204
Er109     Er     0.3338   0.7405   0.0526
Er110     Er     0.3338   0.7405   0.9474
Er111     Er     0.2595   0.6662   0.9474
Er112     Er     0.2595   0.6662   0.0526
Ti113     Ti     0.3906   0.6837   0.8796
Ti114     Ti     0.3163   0.6094   0.8796
Ti115     Ti     0.3906   0.6837   0.1204
Ti116     Ti     0.3163   0.6094   0.1204
V117     V     0.3731   0.5526   0.9474
V118     V     0.3731   0.5526   0.0526
V119     V     0.4474   0.6269   0.9474
V120     V     0.4474   0.6269   0.0526
Er121     Er     0.3338   0.2595   0.0526
Er122     Er     0.3338   0.2595   0.9474
Er123     Er     0.2595   0.3338   0.0526
Er124     Er     0.2595   0.3338   0.9474
Ti125     Ti     0.3163   0.3906   0.8796
Ti126     Ti     0.3906   0.3163   0.8796
V127     V     0.3731   0.4474   0.9474
V128     V     0.3731   0.4474   0.0526
V129     V     0.4474   0.3731   0.9474
V130     V     0.4474   0.3731   0.0526
Ti131     Ti     0.3906   0.3163   0.1204
Ti132     Ti     0.3163   0.3906   0.1204
Ti133     Ti     0.6837   0.3906   0.1204
Ti134     Ti     0.6094   0.3163   0.1204
V135     V     0.5526   0.3731   0.0526
V136     V     0.5526   0.3731   0.9474
V137     V     0.6269   0.4474   0.9474
V138     V     0.6269   0.4474   0.0526
Ti139     Ti     0.6837   0.3906   0.8796
Ti140     Ti     0.6094   0.3163   0.8796
Er141     Er     0.7405   0.3338   0.9474
Er142     Er     0.7405   0.3338   0.0526
Er143     Er     0.6662   0.2595   0.0526
Er144     Er     0.6662   0.2595   0.9474
Ti145     Ti     0.8163   0.6204   0.1094
Ti146     Ti     0.8906   0.6204   0.1837
Er147     Er     0.8338   0.4474   0.2405
Er148     Er     0.8338   0.5526   0.2405
Er149     Er     0.7595   0.5526   0.1662
Er150     Er     0.7595   0.4474   0.1662
Ti151     Ti     0.8163   0.3796   0.1094
Ti152     Ti     0.8906   0.3796   0.1837
V153     V     0.8731   0.5526   0.0526
V154     V     0.8731   0.4474   0.0526
V155     V     0.9474   0.4474   0.1269
V156     V     0.9474   0.5526   0.1269
V157     V     0.0526   0.5526   0.1269
V158     V     0.0526   0.4474   0.1269
V159     V     0.1269   0.4474   0.0526
V160     V     0.1269   0.5526   0.0526
Ti161     Ti     0.1094   0.3796   0.1837
Ti162     Ti     0.1837   0.3796   0.1094
Er163     Er     0.2405   0.4474   0.1662
Er164     Er     0.2405   0.5526   0.1662
Er165     Er     0.1662   0.5526   0.2405
Er166     Er     0.1662   0.4474   0.2405
Ti167     Ti     0.1837   0.6204   0.1094
Ti168     Ti     0.1094   0.6204   0.1837
Er169     Er     0.7595   0.4474   0.8338
Er170     Er     0.7595   0.5526   0.8338
Er171     Er     0.8338   0.4474   0.7595
Er172     Er     0.8338   0.5526   0.7595
Ti173     Ti     0.8163   0.6204   0.8906
Ti174     Ti     0.8906   0.6204   0.8163
V175     V     0.9474   0.5526   0.8731
V176     V     0.9474   0.4474   0.8731
V177     V     0.8731   0.4474   0.9474
V178     V     0.8731   0.5526   0.9474
Ti179     Ti     0.8163   0.3796   0.8906
Ti180     Ti     0.8906   0.3796   0.8163
Ti181     Ti     0.1094   0.6204   0.8163
Ti182     Ti     0.1837   0.6204   0.8906
Er183     Er     0.2405   0.4474   0.8338
Er184     Er     0.2405   0.5526   0.8338
Er185     Er     0.1662   0.5526   0.7595
Er186     Er     0.1662   0.4474   0.7595
V187     V     0.0526   0.4474   0.8731
V188     V     0.0526   0.5526   0.8731
V189     V     0.1269   0.4474   0.9474
V190     V     0.1269   0.5526   0.9474
Ti191     Ti     0.1094   0.3796   0.8163
Ti192     Ti     0.1837   0.3796   0.8906
Ti193     Ti     0.8163   0.1094   0.6204
Ti194     Ti     0.8906   0.1837   0.6204
Er195     Er     0.8338   0.2405   0.4474
Er196     Er     0.8338   0.2405   0.5526
Er197     Er     0.7595   0.1662   0.4474
Er198     Er     0.7595   0.1662   0.5526
V199     V     0.8731   0.0526   0.4474
V200     V     0.8731   0.0526   0.5526
V201     V     0.9474   0.1269   0.5526
V202     V     0.9474   0.1269   0.4474
Ti203     Ti     0.8163   0.1094   0.3796
Ti204     Ti     0.8906   0.1837   0.3796
Ti205     Ti     0.8906   0.8163   0.6204
Ti206     Ti     0.8163   0.8906   0.6204
V207     V     0.8731   0.9474   0.4474
V208     V     0.8731   0.9474   0.5526
V209     V     0.9474   0.8731   0.4474
V210     V     0.9474   0.8731   0.5526
Ti211     Ti     0.8163   0.8906   0.3796
Ti212     Ti     0.8906   0.8163   0.3796
Er213     Er     0.7595   0.8338   0.5526
Er214     Er     0.7595   0.8338   0.4474
Er215     Er     0.8338   0.7595   0.4474
Er216     Er     0.8338   0.7595   0.5526
V217     V     0.1269   0.0526   0.4474
V218     V     0.1269   0.0526   0.5526
V219     V     0.0526   0.1269   0.4474
V220     V     0.0526   0.1269   0.5526
Ti221     Ti     0.1094   0.1837   0.6204
Ti222     Ti     0.1837   0.1094   0.6204
Er223     Er     0.2405   0.1662   0.4474
Er224     Er     0.2405   0.1662   0.5526
Er225     Er     0.1662   0.2405   0.4474
Er226     Er     0.1662   0.2405   0.5526
Ti227     Ti     0.1837   0.1094   0.3796
Ti228     Ti     0.1094   0.1837   0.3796
Ti229     Ti     0.1094   0.8163   0.6204
Ti230     Ti     0.1837   0.8906   0.6204
Er231     Er     0.2405   0.8338   0.4474
Er232     Er     0.2405   0.8338   0.5526
Er233     Er     0.1662   0.7595   0.4474
Er234     Er     0.1662   0.7595   0.5526
V235     V     0.0526   0.8731   0.5526
V236     V     0.0526   0.8731   0.4474
V237     V     0.1269   0.9474   0.4474
V238     V     0.1269   0.9474   0.5526
Ti239     Ti     0.1094   0.8163   0.3796
Ti240     Ti     0.1837   0.8906   0.3796
Er241     Er     0.0526   0.3338   0.7405
Er242     Er     0.9474   0.3338   0.7405
Er243     Er     0.9474   0.2595   0.6662
Er244     Er     0.0526   0.2595   0.6662
Ti245     Ti     0.8796   0.3906   0.6837
Ti246     Ti     0.8796   0.3163   0.6094
Ti247     Ti     0.1204   0.3906   0.6837
Ti248     Ti     0.1204   0.3163   0.6094
V249     V     0.9474   0.3731   0.5526
V250     V     0.0526   0.3731   0.5526
V251     V     0.0526   0.4474   0.6269
V252     V     0.9474   0.4474   0.6269
Ti253     Ti     0.8796   0.6837   0.6094
Ti254     Ti     0.8796   0.6094   0.6837
Er255     Er     0.0526   0.7405   0.6662
Er256     Er     0.9474   0.7405   0.6662
Er257     Er     0.0526   0.6662   0.7405
Er258     Er     0.9474   0.6662   0.7405
V259     V     0.9474   0.5526   0.6269
V260     V     0.0526   0.5526   0.6269
V261     V     0.9474   0.6269   0.5526
V262     V     0.0526   0.6269   0.5526
Ti263     Ti     0.1204   0.6094   0.6837
Ti264     Ti     0.1204   0.6837   0.6094
Er265     Er     0.0526   0.3338   0.2595
Er266     Er     0.9474   0.3338   0.2595
Er267     Er     0.0526   0.2595   0.3338
Er268     Er     0.9474   0.2595   0.3338
Ti269     Ti     0.8796   0.3163   0.3906
Ti270     Ti     0.8796   0.3906   0.3163
V271     V     0.9474   0.3731   0.4474
V272     V     0.0526   0.3731   0.4474
V273     V     0.9474   0.4474   0.3731
V274     V     0.0526   0.4474   0.3731
Ti275     Ti     0.1204   0.3906   0.3163
Ti276     Ti     0.1204   0.3163   0.3906
Ti277     Ti     0.1204   0.6837   0.3906
Ti278     Ti     0.1204   0.6094   0.3163
V279     V     0.0526   0.5526   0.3731
V280     V     0.9474   0.5526   0.3731
V281     V     0.9474   0.6269   0.4474
V282     V     0.0526   0.6269   0.4474
Ti283     Ti     0.8796   0.6837   0.3906
Ti284     Ti     0.8796   0.6094   0.3163
Er285     Er     0.9474   0.7405   0.3338
Er286     Er     0.0526   0.7405   0.3338
Er287     Er     0.0526   0.6662   0.2595
Er288     Er     0.9474   0.6662   0.2595
loop_
_geom_bond_atom_site_label_1
_geom_bond_atom_site_label_2
_geom_bond_distance
_geom_bond_site_symmetry_2
_ccdc_geom_bond_type
Er1     Er2    9.999   1_545     S
Er1     Er4    10.0   .     S
Er1     Ti7    10.0   .     S
Er1     Ti203    10.0   .     S
Er2     Er1    9.999   1_565     S
Er2     Er3    10.0   .     S
Er2     Ti5    10.0   .     S
Er2     Ti211    10.0   .     S
Er3     Er4    9.999   1_565     S
Er3     Ti6    10.0   .     S
Er3     Ti50    10.0   .     S
Er4     Er3    9.999   1_545     S
Er4     Ti8    10.0   .     S
Er4     Ti65    10.0   .     S
Ti5     Er214    10.0   .     S
Ti5     Ti6    10.0   .     S
Ti5     V12    10.0   .     S
Ti6     Er52    10.0   .     S
Ti6     V9    10.0   .     S
Ti7     Er197    10.0   .     S
Ti7     Ti8    10.0   .     S
Ti7     V11    10.0   .     S
Ti8     Er70    10.0   .     S
Ti8     V10    10.0   .     S
V9     V10    9.999   1_565     S
V9     V12    10.0   .     S
V9     V32    10.001   .     S
V10     V9    9.999   1_545     S
V10     V11    10.0   .     S
V10     V31    10.001   .     S
V11     V12    9.999   1_545     S
V11     V19    10.001   .     S
V12     V11    9.999   1_565     S
V12     V20    10.001   .     S
Ti13     Er73    10.0   .     S
Ti13     Ti14    10.0   .     S
Ti13     V21    10.0   .     S
Ti13     Er18    10.0   .     S
Ti14     Er213    10.0   .     S
Ti14     V20    10.0   .     S
Ti14     Er15    10.0   .     S
Er15     Er16    9.999   1_565     S
Er15     Er18    10.0   .     S
Er15     Ti206    10.0   .     S
Er16     Er15    9.999   1_545     S
Er16     Er17    10.0   .     S
Er16     Ti24    10.0   .     S
Er16     Ti193    10.0   .     S
Er17     Er18    9.999   1_545     S
Er17     Ti23    10.0   .     S
Er17     Ti91    10.0   .     S
Er18     Er17    9.999   1_565     S
Er18     Ti77    10.0   .     S
V19     V20    9.999   1_545     S
V19     V22    10.0   .     S
V19     Ti24    10.0   .     S
V20     V19    9.999   1_565     S
V20     V21    10.0   .     S
V21     V22    9.999   1_565     S
V21     V41    10.001   .     S
V22     V21    9.999   1_545     S
V22     Ti23    10.0   .     S
V22     V42    10.001   .     S
Ti23     Er88    10.0   .     S
Ti23     Ti24    10.0   .     S
Ti24     Er198    10.0   .     S
Er25     Er26    9.999   1_565     S
Er25     Er27    10.0   .     S
Er25     Ti29    10.0   .     S
Er25     Ti60    10.0   .     S
Er26     Er25    9.999   1_545     S
Er26     Er28    10.0   .     S
Er26     Ti36    10.0   .     S
Er26     Ti72    10.0   .     S
Er27     Er28    9.999   1_565     S
Er27     Ti30    10.0   .     S
Er27     Ti240    10.0   .     S
Er28     Er27    9.999   1_545     S
Er28     Ti35    10.0   .     S
Er28     Ti227    10.0   .     S
Ti29     Er51    10.0   .     S
Ti29     Ti30    10.0   .     S
Ti29     V32    10.0   .     S
Ti30     Er231    10.0   .     S
Ti30     V33    10.0   .     S
V31     V32    9.999   1_545     S
V31     V34    10.0   .     S
V31     Ti36    10.0   .     S
V32     V31    9.999   1_565     S
V32     V33    10.0   .     S
V33     V34    9.999   1_565     S
V33     V40    10.001   .     S
V34     V33    9.999   1_545     S
V34     Ti35    10.0   .     S
V34     V39    10.001   .     S
Ti35     Er223    10.0   .     S
Ti35     Ti36    10.0   .     S
Ti36     Er69    10.0   .     S
Ti37     Er87    10.0   .     S
Ti37     Ti38    10.0   .     S
Ti37     V42    10.0   .     S
Ti37     Er46    10.0   .     S
Ti38     Er224    10.0   .     S
Ti38     V39    10.0   .     S
Ti38     Er47    10.0   .     S
V39     V40    9.999   1_545     S
V39     V42    10.0   .     S
V40     V39    9.999   1_565     S
V40     V41    10.0   .     S
V40     Ti44    10.0   .     S
V41     V42    9.999   1_565     S
V41     Ti43    10.0   .     S
V42     V41    9.999   1_545     S
Ti43     Er74    10.0   .     S
Ti43     Ti44    10.0   .     S
Ti43     Er45    10.0   .     S
Ti44     Er232    10.0   .     S
Ti44     Er48    10.0   .     S
Er45     Er46    9.999   1_565     S
Er45     Er48    10.0   .     S
Er45     Ti84    10.0   .     S
Er46     Er45    9.999   1_545     S
Er46     Er47    10.0   .     S
Er46     Ti89    10.0   .     S
Er47     Er48    9.999   1_545     S
Er47     Ti222    10.0   .     S
Er48     Er47    9.999   1_565     S
Er48     Ti230    10.0   .     S
Ti49     Er100    10.0   .     S
Ti49     Ti50    10.0   .     S
Ti49     Er54    10.0   .     S
Ti49     V56    10.0   .     S
Ti50     V57    10.0   .     S
Ti50     Er52    10.0   .     S
Er51     Er52    9.999   .     S
Er51     Er53    10.0   .     S
Er51     Ti60    10.0   .     S
Er52     Er54    10.0   .     S
Er53     Er54    9.999   .     S
Er53     Ti59    10.0   .     S
Er53     Ti115    10.0   .     S
Er54     Ti107    10.0   .     S
V55     V56    9.999   .     S
V55     V58    10.0   .     S
V55     Ti59    10.0   .     S
V55     V79    10.001   1_554     S
V56     V57    10.0   .     S
V56     V80    10.001   1_554     S
V57     V58    9.999   .     S
V57     V62    10.001   1_565     S
V58     Ti60    10.0   .     S
V58     V61    10.001   1_565     S
Ti59     Er109    10.0   .     S
Ti59     Ti60    10.0   .     S
V61     V62    9.999   .     S
V61     V63    10.0   .     S
V61     Ti72    10.0   .     S
V61     V58    10.001   1_545     S
V62     V64    10.0   .     S
V62     Ti65    10.0   .     S
V62     V57    10.001   1_545     S
V63     V64    9.999   .     S
V63     Ti71    10.0   .     S
V63     V96    10.001   1_554     S
V64     Ti66    10.0   .     S
V64     V95    10.001   1_554     S
Ti65     Ti66    10.0   .     S
Ti65     Er70    10.0   .     S
Ti66     Er143    10.0   .     S
Ti66     Er67    10.0   .     S
Er67     Er68    9.999   .     S
Er67     Er70    10.0   .     S
Er67     Ti134    10.0   .     S
Er68     Er69    10.0   .     S
Er68     Ti71    10.0   .     S
Er68     Ti131    10.0   .     S
Er69     Er70    9.999   .     S
Er69     Ti72    10.0   .     S
Ti71     Er121    10.0   .     S
Ti71     Ti72    10.0   .     S
Er73     Er74    9.999   .     S
Er73     Er76    10.0   .     S
Er73     Ti77    10.0   .     S
Er74     Er75    10.0   .     S
Er74     Ti84    10.0   .     S
Er75     Er76    9.999   .     S
Er75     Ti83    10.0   .     S
Er75     Ti113    10.0   .     S
Er76     Ti78    10.0   .     S
Er76     Ti98    10.0   .     S
Ti77     Ti78    10.0   .     S
Ti77     V82    10.0   .     S
Ti78     Er99    10.0   .     S
Ti78     V80    10.0   .     S
V79     V55    10.001   1_556     S
V79     V80    9.999   .     S
V79     V81    10.0   .     S
V79     Ti83    10.0   .     S
V80     V56    10.001   1_556     S
V80     V82    10.0   .     S
V81     V82    9.999   .     S
V81     Ti84    10.0   .     S
V81     V93    10.001   1_565     S
V82     V94    10.001   1_565     S
Ti83     Er110    10.0   .     S
Ti83     Ti84    10.0   .     S
Er85     Er86    9.999   .     S
Er85     Er87    10.0   .     S
Er85     Ti90    10.0   .     S
Er85     Ti126    10.0   .     S
Er86     Er88    10.0   .     S
Er86     Ti92    10.0   .     S
Er86     Ti140    10.0   .     S
Er87     Er88    9.999   .     S
Er87     Ti89    10.0   .     S
Er88     Ti91    10.0   .     S
Ti89     Ti90    10.0   .     S
Ti89     V93    10.0   .     S
Ti90     Er122    10.0   .     S
Ti90     V96    10.0   .     S
Ti91     Ti92    10.0   .     S
Ti91     V94    10.0   .     S
Ti92     Er144    10.0   .     S
Ti92     V95    10.0   .     S
V93     V94    9.999   .     S
V93     V96    10.0   .     S
V93     V81    10.001   1_545     S
V94     V95    10.0   .     S
V94     V82    10.001   1_545     S
V95     V64    10.001   1_556     S
V95     V96    9.999   .     S
V96     V63    10.001   1_556     S
Ti97     Er170    10.0   .     S
Ti97     Ti98    10.0   .     S
Ti97     V103    10.0   .     S
Ti97     Er102    10.0   .     S
Ti98     V105    10.0   .     S
Ti98     Er99    10.0   .     S
Er99     Er100    9.999   1_556     S
Er99     Er102    10.0   .     S
Er100     Er99    9.999   1_554     S
Er100     Er101    10.0   .     S
Er100     Ti107    10.0   .     S
Er101     Er102    9.999   1_554     S
Er101     Ti108    10.0   .     S
Er101     Ti145    10.0   .     S
Er102     Er101    9.999   1_556     S
Er102     Ti173    10.0   .     S
V103     V104    9.999   1_556     S
V103     V105    10.0   .     S
V103     V137    10.001   .     S
V104     V103    9.999   1_554     S
V104     V106    10.0   .     S
V104     Ti108    10.0   .     S
V104     V138    10.001   .     S
V105     V106    9.999   1_556     S
V105     V119    10.001   .     S
V106     V105    9.999   1_554     S
V106     Ti107    10.0   .     S
V106     V120    10.001   .     S
Ti107     Ti108    10.0   .     S
Ti108     Er149    10.0   .     S
Er109     Er110    9.999   1_554     S
Er109     Er112    10.0   .     S
Er109     Ti115    10.0   .     S
Er110     Er109    9.999   1_556     S
Er110     Er111    10.0   .     S
Er110     Ti113    10.0   .     S
Er111     Er112    9.999   1_556     S
Er111     Ti114    10.0   .     S
Er111     Ti182    10.0   .     S
Er112     Er111    9.999   1_554     S
Er112     Ti116    10.0   .     S
Er112     Ti167    10.0   .     S
Ti113     Ti114    10.0   .     S
Ti113     V119    10.0   .     S
Ti114     Er184    10.0   .     S
Ti114     V117    10.0   .     S
Ti115     Ti116    10.0   .     S
Ti115     V120    10.0   .     S
Ti116     Er164    10.0   .     S
Ti116     V118    10.0   .     S
V117     V118    9.999   1_556     S
V117     V119    10.0   .     S
V117     V127    10.001   .     S
V118     V117    9.999   1_554     S
V118     V120    10.0   .     S
V118     V128    10.001   .     S
V119     V120    9.999   1_556     S
V120     V119    9.999   1_554     S
Er121     Er122    9.999   1_554     S
Er121     Er123    10.0   .     S
Er121     Ti131    10.0   .     S
Er122     Er121    9.999   1_556     S
Er122     Er124    10.0   .     S
Er122     Ti126    10.0   .     S
Er123     Er124    9.999   1_554     S
Er123     Ti132    10.0   .     S
Er123     Ti162    10.0   .     S
Er124     Er123    9.999   1_556     S
Er124     Ti125    10.0   .     S
Er124     Ti192    10.0   .     S
Ti125     Er183    10.0   .     S
Ti125     Ti126    10.0   .     S
Ti125     V127    10.0   .     S
Ti126     V129    10.0   .     S
V127     V128    9.999   1_556     S
V127     V129    10.0   .     S
V128     V127    9.999   1_554     S
V128     V130    10.0   .     S
V128     Ti132    10.0   .     S
V129     V130    9.999   1_556     S
V129     V136    10.001   .     S
V130     V129    9.999   1_554     S
V130     Ti131    10.0   .     S
V130     V135    10.001   .     S
Ti131     Ti132    10.0   .     S
Ti132     Er163    10.0   .     S
Ti133     Er150    10.0   .     S
Ti133     Ti134    10.0   .     S
Ti133     V138    10.0   .     S
Ti133     Er142    10.0   .     S
Ti134     V135    10.0   .     S
Ti134     Er143    10.0   .     S
V135     V136    9.999   1_554     S
V135     V138    10.0   .     S
V136     V135    9.999   1_556     S
V136     V137    10.0   .     S
V136     Ti140    10.0   .     S
V137     V138    9.999   1_556     S
V137     Ti139    10.0   .     S
V138     V137    9.999   1_554     S
Ti139     Er169    10.0   .     S
Ti139     Ti140    10.0   .     S
Ti139     Er141    10.0   .     S
Ti140     Er144    10.0   .     S
Er141     Er142    9.999   1_556     S
Er141     Er144    10.0   .     S
Er141     Ti179    10.0   .     S
Er142     Er141    9.999   1_554     S
Er142     Er143    10.0   .     S
Er142     Ti151    10.0   .     S
Er143     Er144    9.999   1_554     S
Er144     Er143    9.999   1_556     S
Ti145     Ti146    10.0   .     S
Ti145     Er149    10.0   .     S
Ti145     V153    10.0   .     S
Ti146     Er288    10.0   .     S
Ti146     V156    10.0   .     S
Ti146     Er148    10.0   .     S
Er147     Er148    9.999   .     S
Er147     Er150    10.0   .     S
Er147     Ti152    10.0   .     S
Er147     Ti270    10.0   .     S
Er148     Er149    10.0   .     S
Er148     Ti284    10.0   .     S
Er149     Er150    9.999   .     S
Er150     Ti151    10.0   .     S
Ti151     Ti152    10.0   .     S
Ti151     V154    10.0   .     S
Ti152     Er266    10.0   .     S
Ti152     V155    10.0   .     S
V153     V154    9.999   .     S
V153     V156    10.0   .     S
V153     V178    10.001   1_554     S
V154     V155    10.0   .     S
V154     V177    10.001   1_554     S
V155     V156    9.999   .     S
V155     V158    10.001   1_655     S
V156     V157    10.001   1_655     S
V157     V158    9.999   .     S
V157     V160    10.0   .     S
V157     Ti168    10.0   .     S
V157     V156    10.001   1_455     S
V158     V159    10.0   .     S
V158     Ti161    10.0   .     S
V158     V155    10.001   1_455     S
V159     V160    9.999   .     S
V159     Ti162    10.0   .     S
V159     V189    10.001   1_554     S
V160     Ti167    10.0   .     S
V160     V190    10.001   1_554     S
Ti161     Er265    10.0   .     S
Ti161     Ti162    10.0   .     S
Ti161     Er166    10.0   .     S
Ti162     Er163    10.0   .     S
Er163     Er164    9.999   .     S
Er163     Er166    10.0   .     S
Er164     Er165    10.0   .     S
Er164     Ti167    10.0   .     S
Er165     Er166    9.999   .     S
Er165     Ti168    10.0   .     S
Er165     Ti278    10.0   .     S
Er166     Ti275    10.0   .     S
Ti167     Ti168    10.0   .     S
Ti168     Er287    10.0   .     S
Er169     Er170    9.999   .     S
Er169     Er171    10.0   .     S
Er169     Ti179    10.0   .     S
Er170     Er172    10.0   .     S
Er170     Ti173    10.0   .     S
Er171     Er172    9.999   .     S
Er171     Ti180    10.0   .     S
Er171     Ti245    10.0   .     S
Er172     Ti174    10.0   .     S
Er172     Ti254    10.0   .     S
Ti173     Ti174    10.0   .     S
Ti173     V178    10.0   .     S
Ti174     Er258    10.0   .     S
Ti174     V175    10.0   .     S
V175     V176    9.999   .     S
V175     V178    10.0   .     S
V175     V188    10.001   1_655     S
V176     V177    10.0   .     S
V176     Ti180    10.0   .     S
V176     V187    10.001   1_655     S
V177     V154    10.001   1_556     S
V177     V178    9.999   .     S
V177     Ti179    10.0   .     S
V178     V153    10.001   1_556     S
Ti179     Ti180    10.0   .     S
Ti180     Er242    10.0   .     S
Ti181     Er257    10.0   .     S
Ti181     Ti182    10.0   .     S
Ti181     Er185    10.0   .     S
Ti181     V188    10.0   .     S
Ti182     V190    10.0   .     S
Ti182     Er184    10.0   .     S
Er183     Er184    9.999   .     S
Er183     Er186    10.0   .     S
Er183     Ti192    10.0   .     S
Er184     Er185    10.0   .     S
Er185     Er186    9.999   .     S
Er185     Ti263    10.0   .     S
Er186     Ti191    10.0   .     S
Er186     Ti247    10.0   .     S
V187     V188    9.999   .     S
V187     V189    10.0   .     S
V187     Ti191    10.0   .     S
V187     V176    10.001   1_455     S
V188     V190    10.0   .     S
V188     V175    10.001   1_455     S
V189     V159    10.001   1_556     S
V189     V190    9.999   .     S
V189     Ti192    10.0   .     S
V190     V160    10.001   1_556     S
Ti191     Er241    10.0   .     S
Ti191     Ti192    10.0   .     S
Ti193     Ti194    10.0   .     S
Ti193     Er198    10.0   .     S
Ti193     V200    10.0   .     S
Ti194     Er243    10.0   .     S
Ti194     V201    10.0   .     S
Ti194     Er196    10.0   .     S
Er195     Er196    9.999   .     S
Er195     Er197    10.0   .     S
Er195     Ti204    10.0   .     S
Er195     Ti269    10.0   .     S
Er196     Er198    10.0   .     S
Er196     Ti246    10.0   .     S
Er197     Er198    9.999   .     S
Er197     Ti203    10.0   .     S
V199     V200    9.999   .     S
V199     V202    10.0   .     S
V199     Ti203    10.0   .     S
V199     V207    10.001   1_545     S
V200     V201    10.0   .     S
V200     V208    10.001   1_545     S
V201     V202    9.999   .     S
V201     V220    10.001   1_655     S
V202     Ti204    10.0   .     S
V202     V219    10.001   1_655     S
Ti203     Ti204    10.0   .     S
Ti204     Er268    10.0   .     S
Ti205     Er256    10.0   .     S
Ti205     Ti206    10.0   .     S
Ti205     V210    10.0   .     S
Ti205     Er216    10.0   .     S
Ti206     V208    10.0   .     S
Ti206     Er213    10.0   .     S
V207     V199    10.001   1_565     S
V207     V208    9.999   .     S
V207     V209    10.0   .     S
V207     Ti211    10.0   .     S
V208     V200    10.001   1_565     S
V208     V210    10.0   .     S
V209     V210    9.999   .     S
V209     Ti212    10.0   .     S
V209     V236    10.001   1_655     S
V210     V235    10.001   1_655     S
Ti211     Ti212    10.0   .     S
Ti211     Er214    10.0   .     S
Ti212     Er285    10.0   .     S
Ti212     Er215    10.0   .     S
Er213     Er214    9.999   .     S
Er213     Er216    10.0   .     S
Er214     Er215    10.0   .     S
Er215     Er216    9.999   .     S
Er215     Ti283    10.0   .     S
Er216     Ti253    10.0   .     S
V217     V218    9.999   .     S
V217     V219    10.0   .     S
V217     Ti227    10.0   .     S
V217     V237    10.001   1_545     S
V218     V220    10.0   .     S
V218     Ti222    10.0   .     S
V218     V238    10.001   1_545     S
V219     V220    9.999   .     S
V219     Ti228    10.0   .     S
V219     V202    10.001   1_455     S
V220     Ti221    10.0   .     S
V220     V201    10.001   1_455     S
Ti221     Er244    10.0   .     S
Ti221     Ti222    10.0   .     S
Ti221     Er226    10.0   .     S
Ti222     Er224    10.0   .     S
Er223     Er224    9.999   .     S
Er223     Er225    10.0   .     S
Er223     Ti227    10.0   .     S
Er224     Er226    10.0   .     S
Er225     Er226    9.999   .     S
Er225     Ti228    10.0   .     S
Er225     Ti276    10.0   .     S
Er226     Ti248    10.0   .     S
Ti227     Ti228    10.0   .     S
Ti228     Er267    10.0   .     S
Ti229     Er255    10.0   .     S
Ti229     Ti230    10.0   .     S
Ti229     Er234    10.0   .     S
Ti229     V235    10.0   .     S
Ti230     V238    10.0   .     S
Ti230     Er232    10.0   .     S
Er231     Er232    9.999   .     S
Er231     Er233    10.0   .     S
Er231     Ti240    10.0   .     S
Er232     Er234    10.0   .     S
Er233     Er234    9.999   .     S
Er233     Ti239    10.0   .     S
Er233     Ti277    10.0   .     S
Er234     Ti264    10.0   .     S
V235     V236    9.999   .     S
V235     V238    10.0   .     S
V235     V210    10.001   1_455     S
V236     V237    10.0   .     S
V236     Ti239    10.0   .     S
V236     V209    10.001   1_455     S
V237     V217    10.001   1_565     S
V237     V238    9.999   .     S
V237     Ti240    10.0   .     S
V238     V218    10.001   1_565     S
Ti239     Er286    10.0   .     S
Ti239     Ti240    10.0   .     S
Er241     Er242    9.999   1_455     S
Er241     Er244    10.0   .     S
Er241     Ti247    10.0   .     S
Er242     Er241    9.999   1_655     S
Er242     Er243    10.0   .     S
Er242     Ti245    10.0   .     S
Er243     Er244    9.999   1_655     S
Er243     Ti246    10.0   .     S
Er244     Er243    9.999   1_455     S
Er244     Ti248    10.0   .     S
Ti245     Ti246    10.0   .     S
Ti245     V252    10.0   .     S
Ti246     V249    10.0   .     S
Ti247     Ti248    10.0   .     S
Ti247     V251    10.0   .     S
Ti248     V250    10.0   .     S
V249     V250    9.999   1_655     S
V249     V252    10.0   .     S
V249     V271    10.001   .     S
V250     V249    9.999   1_455     S
V250     V251    10.0   .     S
V250     V272    10.001   .     S
V251     V252    9.999   1_455     S
V251     V260    10.001   .     S
V252     V251    9.999   1_655     S
V252     V259    10.001   .     S
Ti253     Ti254    10.0   .     S
Ti253     V261    10.0   .     S
Ti253     Er256    10.0   .     S
Ti254     V259    10.0   .     S
Ti254     Er258    10.0   .     S
Er255     Er256    9.999   1_455     S
Er255     Er257    10.0   .     S
Er255     Ti264    10.0   .     S
Er256     Er255    9.999   1_655     S
Er256     Er258    10.0   .     S
Er257     Er258    9.999   1_455     S
Er257     Ti263    10.0   .     S
Er258     Er257    9.999   1_655     S
V259     V260    9.999   1_655     S
V259     V261    10.0   .     S
V260     V259    9.999   1_455     S
V260     V262    10.0   .     S
V260     Ti263    10.0   .     S
V261     V262    9.999   1_655     S
V261     V281    10.001   .     S
V262     V261    9.999   1_455     S
V262     Ti264    10.0   .     S
V262     V282    10.001   .     S
Ti263     Ti264    10.0   .     S
Er265     Er266    9.999   1_455     S
Er265     Er267    10.0   .     S
Er265     Ti275    10.0   .     S
Er266     Er265    9.999   1_655     S
Er266     Er268    10.0   .     S
Er266     Ti270    10.0   .     S
Er267     Er268    9.999   1_455     S
Er267     Ti276    10.0   .     S
Er268     Er267    9.999   1_655     S
Er268     Ti269    10.0   .     S
Ti269     Ti270    10.0   .     S
Ti269     V271    10.0   .     S
Ti270     V273    10.0   .     S
V271     V272    9.999   1_655     S
V271     V273    10.0   .     S
V272     V271    9.999   1_455     S
V272     V274    10.0   .     S
V272     Ti276    10.0   .     S
V273     V274    9.999   1_655     S
V273     V280    10.001   .     S
V274     V273    9.999   1_455     S
V274     Ti275    10.0   .     S
V274     V279    10.001   .     S
Ti275     Ti276    10.0   .     S
Ti277     Ti278    10.0   .     S
Ti277     V282    10.0   .     S
Ti277     Er286    10.0   .     S
Ti278     V279    10.0   .     S
Ti278     Er287    10.0   .     S
V279     V280    9.999   1_455     S
V279     V282    10.0   .     S
V280     V279    9.999   1_655     S
V280     V281    10.0   .     S
V280     Ti284    10.0   .     S
V281     V282    9.999   1_655     S
V281     Ti283    10.0   .     S
V282     V281    9.999   1_455     S
Ti283     Ti284    10.0   .     S
Ti283     Er285    10.0   .     S
Ti284     Er288    10.0   .     S
Er285     Er286    9.999   1_655     S
Er285     Er288    10.0   .     S
Er286     Er285    9.999   1_455     S
Er286     Er287    10.0   .     S
Er287     Er288    9.999   1_455     S
Er288     Er287    9.999   1_655     S
