data_spha
_audit_creation_date              2020-02-02
_audit_creation_method            'Pymatgen'
_symmetry_space_group_name_H-M    'P1'
_symmetry_Int_Tables_number       1
loop_
_symmetry_equiv_pos_as_xyz
  x,y,z
_cell_length_a                    85.3977
_cell_length_b                    85.3977
_cell_length_c                    85.3977
_cell_angle_alpha                 90.0
_cell_angle_beta                 90.0
_cell_angle_gamma                 90.0
loop_
_atom_site_label
_atom_site_type_symbol
_atom_site_fract_x
_atom_site_fract_y
_atom_site_fract_z
Ti1     Ti     0.9167   0.25   0.1667
Ti2     Ti     0.9167   0.1667   0.25
Ti3     Ti     0.0833   0.25   0.3333
Ti4     Ti     0.0   0.1667   0.3333
Ti5     Ti     0.0   0.3333   0.1667
Ti6     Ti     0.0833   0.3333   0.25
Ti7     Ti     0.5833   0.25   0.8333
Ti8     Ti     0.5   0.1667   0.8333
Ti9     Ti     0.4167   0.1667   0.75
Ti10     Ti     0.4167   0.25   0.6667
Ti11     Ti     0.5   0.3333   0.6667
Ti12     Ti     0.5833   0.3333   0.75
Ti13     Ti     0.1667   0.8333   0.5
Ti14     Ti     0.25   0.8333   0.5833
Ti15     Ti     0.3333   0.75   0.5833
Ti16     Ti     0.1667   0.75   0.4167
Ti17     Ti     0.3333   0.6667   0.5
Ti18     Ti     0.25   0.6667   0.4167
Ti19     Ti     0.6667   0.5   0.3333
Ti20     Ti     0.6667   0.4167   0.25
Ti21     Ti     0.8333   0.5833   0.25
Ti22     Ti     0.8333   0.5   0.1667
Ti23     Ti     0.75   0.4167   0.1667
Ti24     Ti     0.75   0.5833   0.3333
Ti25     Ti     0.8333   0.25   0.5833
Ti26     Ti     0.8333   0.1667   0.5
Ti27     Ti     0.75   0.1667   0.4167
Ti28     Ti     0.6667   0.25   0.4167
Ti29     Ti     0.6667   0.3333   0.5
Ti30     Ti     0.75   0.3333   0.5833
Ti31     Ti     0.3333   0.5   0.6667
Ti32     Ti     0.25   0.4167   0.6667
Ti33     Ti     0.25   0.5833   0.8333
Ti34     Ti     0.1667   0.5   0.8333
Ti35     Ti     0.1667   0.4167   0.75
Ti36     Ti     0.3333   0.5833   0.75
Ti37     Ti     0.4167   0.6667   0.25
Ti38     Ti     0.5833   0.8333   0.25
Ti39     Ti     0.5833   0.75   0.3333
Ti40     Ti     0.5   0.8333   0.1667
Ti41     Ti     0.4167   0.75   0.1667
Ti42     Ti     0.5   0.6667   0.3333
Ti43     Ti     0.8333   0.6667   0.0
Ti44     Ti     0.6667   0.8333   0.0
Ti45     Ti     0.75   0.8333   0.0833
Ti46     Ti     0.8333   0.75   0.0833
Ti47     Ti     0.6667   0.75   0.9167
Ti48     Ti     0.75   0.6667   0.9167
Ti49     Ti     0.0833   0.75   0.8333
Ti50     Ti     0.0833   0.8333   0.75
Ti51     Ti     0.0   0.6667   0.8333
Ti52     Ti     0.9167   0.75   0.6667
Ti53     Ti     0.0   0.8333   0.6667
Ti54     Ti     0.9167   0.6667   0.75
Ti55     Ti     0.8333   0.0   0.6667
Ti56     Ti     0.8333   0.0833   0.75
Ti57     Ti     0.75   0.0833   0.8333
Ti58     Ti     0.6667   0.0   0.8333
Ti59     Ti     0.75   0.9167   0.6667
Ti60     Ti     0.6667   0.9167   0.75
Ti61     Ti     0.25   0.3333   0.0833
Ti62     Ti     0.1667   0.3333   0.0
Ti63     Ti     0.3333   0.25   0.0833
Ti64     Ti     0.25   0.1667   0.9167
Ti65     Ti     0.1667   0.25   0.9167
Ti66     Ti     0.3333   0.1667   0.0
Ti67     Ti     0.9167   0.0   0.0833
Ti68     Ti     0.9167   0.0833   0.0
Ti69     Ti     0.0833   0.0   0.9167
Ti70     Ti     0.0   0.0833   0.9167
Ti71     Ti     0.0   0.9167   0.0833
Ti72     Ti     0.0833   0.9167   0.0
Ti73     Ti     0.4167   0.0   0.5833
Ti74     Ti     0.4167   0.0833   0.5
Ti75     Ti     0.5   0.0833   0.4167
Ti76     Ti     0.5833   0.9167   0.5
Ti77     Ti     0.5   0.9167   0.5833
Ti78     Ti     0.5833   0.0   0.4167
Ti79     Ti     0.25   0.9167   0.1667
Ti80     Ti     0.1667   0.9167   0.25
Ti81     Ti     0.3333   0.0833   0.25
Ti82     Ti     0.3333   0.0   0.1667
Ti83     Ti     0.1667   0.0   0.3333
Ti84     Ti     0.25   0.0833   0.3333
Ti85     Ti     0.0   0.5833   0.4167
Ti86     Ti     0.0833   0.5   0.4167
Ti87     Ti     0.0833   0.4167   0.5
Ti88     Ti     0.9167   0.5   0.5833
Ti89     Ti     0.9167   0.5833   0.5
Ti90     Ti     0.0   0.4167   0.5833
Er91     Er     0.1405   0.223   0.527
Er92     Er     0.277   0.277   0.3905
V93     V     0.1667   0.25   0.4167
Er94     Er     0.3595   0.277   0.473
V95     V     0.3333   0.25   0.5833
Er96     Er     0.223   0.1405   0.527
V97     V     0.3333   0.1667   0.5
V98     V     0.25   0.1667   0.4167
Er99     Er     0.223   0.223   0.6095
Er100     Er     0.277   0.3595   0.473
V101     V     0.25   0.3333   0.5833
V102     V     0.1667   0.3333   0.5
Er103     Er     0.527   0.223   0.1405
V104     V     0.5   0.3333   0.1667
Er105     Er     0.473   0.3595   0.277
V106     V     0.5833   0.3333   0.25
Er107     Er     0.6095   0.223   0.223
Er108     Er     0.473   0.277   0.3595
V109     V     0.5833   0.25   0.3333
V110     V     0.5   0.1667   0.3333
Er111     Er     0.3905   0.277   0.277
V112     V     0.4167   0.25   0.1667
V113     V     0.4167   0.1667   0.25
Er114     Er     0.527   0.1405   0.223
Ce115     Ce     0.4356   0.3969   0.3969
Ce116     Ce     0.3969   0.4356   0.3969
Ce117     Ce     0.3969   0.3969   0.4356
Ce118     Ce     0.4356   0.3531   0.3531
Ce119     Ce     0.3969   0.3144   0.3531
Ce120     Ce     0.3969   0.3531   0.3144
Ce121     Ce     0.3531   0.3969   0.3144
Ce122     Ce     0.3144   0.3969   0.3531
Ce123     Ce     0.3531   0.4356   0.3531
Ce124     Ce     0.3531   0.3144   0.3969
Ce125     Ce     0.3531   0.3531   0.4356
Ce126     Ce     0.3144   0.3531   0.3969
Er127     Er     0.3905   0.473   0.473
V128     V     0.4167   0.5   0.5833
V129     V     0.4167   0.5833   0.5
Er130     Er     0.527   0.527   0.6095
Er131     Er     0.473   0.3905   0.473
V132     V     0.5833   0.4167   0.5
V133     V     0.5   0.4167   0.5833
Er134     Er     0.6095   0.527   0.527
Er135     Er     0.473   0.473   0.3905
V136     V     0.5   0.5833   0.4167
V137     V     0.5833   0.5   0.4167
Er138     Er     0.527   0.6095   0.527
Ce139     Ce     0.5644   0.6469   0.6469
Ce140     Ce     0.6031   0.6856   0.6469
Ce141     Ce     0.6031   0.6469   0.6856
Ce142     Ce     0.6469   0.6031   0.6856
Ce143     Ce     0.6469   0.5644   0.6469
Ce144     Ce     0.6856   0.6031   0.6469
Ce145     Ce     0.5644   0.6031   0.6031
Ce146     Ce     0.6031   0.5644   0.6031
Ce147     Ce     0.6031   0.6031   0.5644
Ce148     Ce     0.6856   0.6469   0.6031
Ce149     Ce     0.6469   0.6469   0.5644
Ce150     Ce     0.6469   0.6856   0.6031
Er151     Er     0.723   0.723   0.6095
Er152     Er     0.8595   0.777   0.473
V153     V     0.8333   0.6667   0.5
V154     V     0.8333   0.75   0.5833
Er155     Er     0.777   0.8595   0.473
V156     V     0.6667   0.8333   0.5
V157     V     0.75   0.8333   0.5833
Er158     Er     0.6405   0.723   0.527
Er159     Er     0.777   0.777   0.3905
V160     V     0.75   0.6667   0.4167
V161     V     0.6667   0.75   0.4167
Er162     Er     0.723   0.6405   0.527
Er163     Er     0.527   0.027   0.1095
V164     V     0.5   0.9167   0.0833
Er165     Er     0.527   0.1095   0.027
V166     V     0.5   0.0833   0.9167
Er167     Er     0.473   0.8905   0.973
Er168     Er     0.473   0.973   0.8905
Er169     Er     0.6095   0.027   0.0271
V170     V     0.5833   0.0   0.9167
V171     V     0.5833   0.9167   0.0
Er172     Er     0.3905   0.973   0.973
V173     V     0.4167   0.0   0.0833
V174     V     0.4167   0.0833   0.0
Ce175     Ce     0.5644   0.1469   0.1469
Ce176     Ce     0.6031   0.1856   0.1469
Ce177     Ce     0.6031   0.1469   0.1856
Ce178     Ce     0.6031   0.0644   0.1031
Ce179     Ce     0.6031   0.1031   0.0644
Ce180     Ce     0.5644   0.1031   0.1031
Ce181     Ce     0.6469   0.1031   0.1856
Ce182     Ce     0.6469   0.0644   0.1469
Ce183     Ce     0.6856   0.1031   0.1469
Ce184     Ce     0.6469   0.1469   0.0644
Ce185     Ce     0.6856   0.1469   0.1031
Ce186     Ce     0.6469   0.1856   0.1031
Er187     Er     0.8595   0.973   0.277
V188     V     0.8333   0.0   0.1667
V189     V     0.8333   0.0833   0.25
Er190     Er     0.723   0.1095   0.223
Er191     Er     0.723   0.027   0.1405
V192     V     0.75   0.9167   0.1667
Er193     Er     0.777   0.973   0.3595
V194     V     0.6667   0.0   0.3333
Er195     Er     0.6405   0.0271   0.223
Er196     Er     0.777   0.8905   0.277
V197     V     0.6667   0.9167   0.25
V198     V     0.75   0.0833   0.3333
Ce199     Ce     0.8531   0.8531   0.4356
Ce200     Ce     0.8531   0.8144   0.3969
Ce201     Ce     0.8144   0.8531   0.3969
Ce202     Ce     0.8531   0.9356   0.3531
Ce203     Ce     0.8531   0.8969   0.3144
Ce204     Ce     0.8144   0.8969   0.3531
Ce205     Ce     0.8969   0.9356   0.3969
Ce206     Ce     0.9356   0.8969   0.3969
Ce207     Ce     0.8969   0.8969   0.4356
Ce208     Ce     0.8969   0.8144   0.3531
Ce209     Ce     0.8969   0.8531   0.3144
Ce210     Ce     0.9356   0.8531   0.3531
Er211     Er     0.223   0.527   0.1405
Er212     Er     0.223   0.6095   0.223
V213     V     0.3333   0.5833   0.25
Er214     Er     0.3595   0.473   0.277
V215     V     0.3333   0.5   0.1667
Er216     Er     0.277   0.3905   0.277
Er217     Er     0.1405   0.527   0.223
V218     V     0.1667   0.5   0.3333
V219     V     0.1667   0.4167   0.25
Er220     Er     0.277   0.473   0.3595
V221     V     0.25   0.5833   0.3333
V222     V     0.25   0.4167   0.1667
Er223     Er     0.973   0.8595   0.277
V224     V     0.0   0.8333   0.1667
V225     V     0.0833   0.8333   0.25
Er226     Er     0.027   0.723   0.1405
Er227     Er     0.027   0.6405   0.223
Er228     Er     0.8905   0.777   0.277
V229     V     0.9167   0.6667   0.25
V230     V     0.9167   0.75   0.1667
Er231     Er     0.973   0.777   0.3595
V232     V     0.0   0.6667   0.3333
Er233     Er     0.1095   0.723   0.223
V234     V     0.0833   0.75   0.3333
Ce235     Ce     0.1469   0.6031   0.1856
Ce236     Ce     0.1469   0.5644   0.1469
Ce237     Ce     0.1856   0.6031   0.1469
Ce238     Ce     0.1031   0.6856   0.1469
Ce239     Ce     0.1031   0.6469   0.1856
Ce240     Ce     0.0644   0.6469   0.1469
Ce241     Ce     0.0644   0.6031   0.1031
Ce242     Ce     0.1031   0.6031   0.0644
Ce243     Ce     0.1031   0.5644   0.1031
Ce244     Ce     0.1469   0.6856   0.1031
Ce245     Ce     0.1469   0.6469   0.0644
Ce246     Ce     0.1856   0.6469   0.1031
Er247     Er     0.1095   0.527   0.027
V248     V     0.0833   0.5   0.9167
Er249     Er     0.027   0.527   0.1095
V250     V     0.9167   0.5   0.0833
Er251     Er     0.973   0.473   0.8905
Er252     Er     0.027   0.6095   0.0271
V253     V     0.0   0.5833   0.9167
Er254     Er     0.8905   0.473   0.973
V255     V     0.9167   0.5833   0.0
Er256     Er     0.973   0.3905   0.973
V257     V     0.0833   0.4167   0.0
V258     V     0.0   0.4167   0.0833
Er259     Er     0.6095   0.723   0.723
Er260     Er     0.473   0.8595   0.777
V261     V     0.5   0.8333   0.6667
V262     V     0.5833   0.8333   0.75
Er263     Er     0.527   0.723   0.6405
Er264     Er     0.473   0.777   0.8595
V265     V     0.5833   0.75   0.8333
V266     V     0.5   0.6667   0.8333
Er267     Er     0.527   0.6405   0.723
Er268     Er     0.3905   0.777   0.777
V269     V     0.4167   0.75   0.6667
V270     V     0.4167   0.6667   0.75
Er271     Er     0.223   0.723   0.1095
Er272     Er     0.277   0.8595   0.973
V273     V     0.25   0.8333   0.0833
V274     V     0.1667   0.8333   0.0
Er275     Er     0.1405   0.723   0.027
V276     V     0.1667   0.75   0.9167
Er277     Er     0.223   0.6405   0.027
Er278     Er     0.277   0.777   0.8905
V279     V     0.25   0.6667   0.9167
Er280     Er     0.3595   0.777   0.973
V281     V     0.3333   0.6667   0.0
V282     V     0.3333   0.75   0.0833
Ce283     Ce     0.4356   0.8531   0.8531
Ce284     Ce     0.3969   0.8144   0.8531
Ce285     Ce     0.3969   0.8531   0.8144
Ce286     Ce     0.3144   0.8531   0.8969
Ce287     Ce     0.3531   0.8531   0.9356
Ce288     Ce     0.3531   0.8144   0.8969
Ce289     Ce     0.3531   0.9356   0.8531
Ce290     Ce     0.3144   0.8969   0.8531
Ce291     Ce     0.3531   0.8969   0.8144
Ce292     Ce     0.3969   0.8969   0.9356
Ce293     Ce     0.3969   0.9356   0.8969
Ce294     Ce     0.4356   0.8969   0.8969
Er295     Er     0.777   0.3905   0.777
V296     V     0.6667   0.4167   0.75
V297     V     0.75   0.4167   0.6667
Er298     Er     0.6405   0.527   0.723
Er299     Er     0.8595   0.473   0.777
V300     V     0.8333   0.5833   0.75
V301     V     0.8333   0.5   0.6667
Er302     Er     0.723   0.527   0.6405
Er303     Er     0.777   0.473   0.8595
V304     V     0.75   0.5833   0.8333
V305     V     0.6667   0.5   0.8333
Er306     Er     0.723   0.6095   0.723
Er307     Er     0.8595   0.277   0.973
V308     V     0.8333   0.25   0.0833
V309     V     0.8333   0.1667   0.0
Er310     Er     0.723   0.223   0.1095
V311     V     0.75   0.3333   0.0833
Er312     Er     0.777   0.3595   0.973
V313     V     0.6667   0.3333   0.0
Er314     Er     0.723   0.1405   0.0271
V315     V     0.75   0.1667   0.9167
Er316     Er     0.6405   0.223   0.027
Er317     Er     0.777   0.277   0.8905
V318     V     0.6667   0.25   0.9167
Ce319     Ce     0.8531   0.4356   0.8531
Ce320     Ce     0.8531   0.3969   0.8144
Ce321     Ce     0.8144   0.3969   0.8531
Ce322     Ce     0.8531   0.3144   0.8969
Ce323     Ce     0.8531   0.3531   0.9356
Ce324     Ce     0.8144   0.3531   0.8969
Ce325     Ce     0.9356   0.3531   0.8531
Ce326     Ce     0.8969   0.3144   0.8531
Ce327     Ce     0.8969   0.3531   0.8144
Ce328     Ce     0.8969   0.3969   0.9356
Ce329     Ce     0.9356   0.3969   0.8969
Ce330     Ce     0.8969   0.4356   0.8969
Er331     Er     0.277   0.973   0.8595
V332     V     0.1667   0.0   0.8333
V333     V     0.25   0.0833   0.8333
Er334     Er     0.3595   0.973   0.777
V335     V     0.3333   0.0   0.6667
Er336     Er     0.223   0.1095   0.723
V337     V     0.3333   0.0833   0.75
Er338     Er     0.1405   0.0271   0.723
V339     V     0.1667   0.9167   0.75
Er340     Er     0.223   0.027   0.6405
Er341     Er     0.277   0.8905   0.777
V342     V     0.25   0.9167   0.6667
Er343     Er     0.027   0.1405   0.723
V344     V     0.9167   0.1667   0.75
Er345     Er     0.8905   0.277   0.777
Er346     Er     0.027   0.223   0.6405
V347     V     0.9167   0.25   0.6667
Er348     Er     0.973   0.3595   0.777
V349     V     0.0   0.3333   0.6667
V350     V     0.0833   0.3333   0.75
Er351     Er     0.1095   0.223   0.723
Er352     Er     0.973   0.277   0.8595
V353     V     0.0   0.1667   0.8333
V354     V     0.0833   0.25   0.8333
Ce355     Ce     0.1031   0.1469   0.6856
Ce356     Ce     0.1031   0.1856   0.6469
Ce357     Ce     0.0644   0.1469   0.6469
Ce358     Ce     0.1469   0.1469   0.5644
Ce359     Ce     0.1856   0.1469   0.6031
Ce360     Ce     0.1469   0.1856   0.6031
Ce361     Ce     0.1469   0.1031   0.6856
Ce362     Ce     0.1469   0.0644   0.6469
Ce363     Ce     0.1856   0.1031   0.6469
Ce364     Ce     0.0644   0.1031   0.6031
Ce365     Ce     0.1031   0.0644   0.6031
Ce366     Ce     0.1031   0.1031   0.5644
Er367     Er     0.1095   0.027   0.527
V368     V     0.0833   0.9167   0.5
Er369     Er     0.027   0.1095   0.527
V370     V     0.9167   0.0833   0.5
Er371     Er     0.973   0.8905   0.473
Er372     Er     0.027   0.0271   0.6095
Er373     Er     0.8905   0.973   0.473
V374     V     0.9167   0.0   0.5833
V375     V     0.0   0.9167   0.5833
Er376     Er     0.973   0.973   0.3905
V377     V     0.0   0.0833   0.4167
V378     V     0.0833   0.0   0.4167
Ti379     Ti     0.5833   0.5   0.9167
Ti380     Ti     0.5   0.5833   0.9167
Ti381     Ti     0.5833   0.4167   0.0
Ti382     Ti     0.4167   0.5833   0.0
Ti383     Ti     0.5   0.4167   0.0833
Ti384     Ti     0.4167   0.5   0.0833
loop_
_geom_bond_atom_site_label_1
_geom_bond_atom_site_label_2
_geom_bond_distance
_geom_bond_site_symmetry_2
_ccdc_geom_bond_type
Ti1     Ti5    10.064   1_655     S
Ti1     Ti2    10.064   .     S
Ti1     V308    10.064   .     S
Ti2     Ti4    10.064   1_655     S
Ti2     V189    10.064   .     S
Ti3     Ti4    10.064   .     S
Ti3     Ti6    10.064   .     S
Ti3     V93    10.064   .     S
Ti4     Ti2    10.064   1_455     S
Ti4     V377    10.064   .     S
Ti5     Ti1    10.064   1_455     S
Ti5     Ti6    10.064   .     S
Ti5     V258    10.064   .     S
Ti6     V219    10.064   .     S
Ti7     Ti12    10.064   .     S
Ti7     Ti8    10.064   .     S
Ti7     V318    10.064   .     S
Ti8     Ti9    10.064   .     S
Ti8     V166    10.064   .     S
Ti9     Ti10    10.064   .     S
Ti9     V337    10.064   .     S
Ti10     Ti11    10.064   .     S
Ti10     V95    10.064   .     S
Ti11     Ti12    10.064   .     S
Ti11     V133    10.064   .     S
Ti12     V296    10.064   .     S
Ti13     Ti16    10.064   .     S
Ti13     Ti14    10.064   .     S
Ti13     V368    10.064   .     S
Ti14     Ti15    10.064   .     S
Ti14     V342    10.064   .     S
Ti15     Ti17    10.064   .     S
Ti15     V269    10.064   .     S
Ti16     Ti18    10.064   .     S
Ti16     V234    10.064   .     S
Ti17     Ti18    10.064   .     S
Ti17     V129    10.064   .     S
Ti18     V221    10.064   .     S
Ti19     Ti24    10.064   .     S
Ti19     Ti20    10.064   .     S
Ti19     V137    10.064   .     S
Ti20     Ti23    10.064   .     S
Ti20     V106    10.064   .     S
Ti21     Ti24    10.064   .     S
Ti21     Ti22    10.064   .     S
Ti21     V229    10.064   .     S
Ti22     Ti23    10.064   .     S
Ti22     V250    10.064   .     S
Ti23     V311    10.064   .     S
Ti24     V160    10.064   .     S
Ti25     Ti30    10.064   .     S
Ti25     Ti26    10.064   .     S
Ti25     V347    10.064   .     S
Ti26     Ti27    10.064   .     S
Ti26     V370    10.064   .     S
Ti27     Ti28    10.064   .     S
Ti27     V198    10.064   .     S
Ti28     Ti29    10.064   .     S
Ti28     V109    10.064   .     S
Ti29     Ti30    10.064   .     S
Ti29     V132    10.064   .     S
Ti30     V297    10.064   .     S
Ti31     Ti36    10.064   .     S
Ti31     Ti32    10.064   .     S
Ti31     V128    10.064   .     S
Ti32     Ti35    10.064   .     S
Ti32     V101    10.064   .     S
Ti33     Ti36    10.064   .     S
Ti33     Ti34    10.064   .     S
Ti33     V279    10.064   .     S
Ti34     Ti35    10.064   .     S
Ti34     V248    10.064   .     S
Ti35     V350    10.064   .     S
Ti36     V270    10.064   .     S
Ti37     Ti42    10.064   .     S
Ti37     Ti41    10.064   .     S
Ti37     V213    10.064   .     S
Ti38     Ti39    10.064   .     S
Ti38     Ti40    10.064   .     S
Ti38     V197    10.064   .     S
Ti39     Ti42    10.064   .     S
Ti39     V161    10.064   .     S
Ti40     Ti41    10.064   .     S
Ti40     V164    10.064   .     S
Ti41     V282    10.064   .     S
Ti42     V136    10.064   .     S
Ti43     Ti48    10.064   1_554     S
Ti43     Ti46    10.064   .     S
Ti43     V255    10.064   .     S
Ti44     Ti47    10.064   1_554     S
Ti44     Ti45    10.064   .     S
Ti44     V171    10.064   .     S
Ti45     Ti46    10.064   .     S
Ti45     V192    10.064   .     S
Ti46     V230    10.064   .     S
Ti47     Ti44    10.064   1_556     S
Ti47     Ti48    10.064   .     S
Ti47     V265    10.064   .     S
Ti48     Ti43    10.064   1_556     S
Ti48     V304    10.064   .     S
Ti49     Ti50    10.064   .     S
Ti49     Ti51    10.064   .     S
Ti49     V276    10.064   .     S
Ti50     Ti53    10.064   .     S
Ti50     V339    10.064   .     S
Ti51     Ti54    10.064   1_455     S
Ti51     V253    10.064   .     S
Ti52     Ti53    10.064   1_655     S
Ti52     Ti54    10.064   .     S
Ti52     V154    10.064   .     S
Ti53     Ti52    10.064   1_455     S
Ti53     V375    10.064   .     S
Ti54     Ti51    10.064   1_655     S
Ti54     V300    10.064   .     S
Ti55     Ti59    10.064   1_545     S
Ti55     Ti56    10.064   .     S
Ti55     V374    10.064   .     S
Ti56     Ti57    10.064   .     S
Ti56     V344    10.064   .     S
Ti57     Ti58    10.064   .     S
Ti57     V315    10.064   .     S
Ti58     Ti60    10.064   1_545     S
Ti58     V170    10.064   .     S
Ti59     Ti55    10.064   1_565     S
Ti59     Ti60    10.064   .     S
Ti59     V157    10.064   .     S
Ti60     Ti58    10.064   1_565     S
Ti60     V262    10.064   .     S
Ti61     Ti62    10.064   .     S
Ti61     Ti63    10.064   .     S
Ti61     V222    10.064   .     S
Ti62     Ti65    10.064   1_554     S
Ti62     V257    10.064   .     S
Ti63     Ti66    10.064   .     S
Ti63     V112    10.064   .     S
Ti64     Ti66    10.064   1_556     S
Ti64     Ti65    10.064   .     S
Ti64     V333    10.064   .     S
Ti65     Ti62    10.064   1_556     S
Ti65     V354    10.064   .     S
Ti66     Ti64    10.064   1_554     S
Ti66     V174    10.064   .     S
Ti67     Ti71    10.064   1_645     S
Ti67     Ti68    10.064   .     S
Ti67     V188    10.064   .     S
Ti68     Ti70    10.064   1_654     S
Ti68     V309    10.064   .     S
Ti69     Ti70    10.064   .     S
Ti69     Ti72    10.064   1_546     S
Ti69     V332    10.064   .     S
Ti70     Ti68    10.064   1_456     S
Ti70     V353    10.064   .     S
Ti71     Ti67    10.064   1_465     S
Ti71     Ti72    10.064   .     S
Ti71     V224    10.064   .     S
Ti72     Ti69    10.064   1_564     S
Ti72     V274    10.064   .     S
Ti73     Ti77    10.064   1_545     S
Ti73     Ti74    10.064   .     S
Ti73     V335    10.064   .     S
Ti74     Ti75    10.064   .     S
Ti74     V97    10.064   .     S
Ti75     Ti78    10.064   .     S
Ti75     V110    10.064   .     S
Ti76     Ti78    10.064   1_565     S
Ti76     Ti77    10.064   .     S
Ti76     V156    10.064   .     S
Ti77     Ti73    10.064   1_565     S
Ti77     V261    10.064   .     S
Ti78     Ti76    10.064   1_545     S
Ti78     V194    10.064   .     S
Ti79     Ti80    10.064   .     S
Ti79     Ti82    10.064   1_565     S
Ti79     V273    10.064   .     S
Ti80     Ti83    10.064   1_565     S
Ti80     V225    10.064   .     S
Ti81     Ti82    10.064   .     S
Ti81     Ti84    10.064   .     S
Ti81     V113    10.064   .     S
Ti82     Ti79    10.064   1_545     S
Ti82     V173    10.064   .     S
Ti83     Ti80    10.064   1_545     S
Ti83     Ti84    10.064   .     S
Ti83     V378    10.064   .     S
Ti84     V98    10.064   .     S
Ti85     Ti89    10.064   1_455     S
Ti85     Ti86    10.064   .     S
Ti85     V232    10.064   .     S
Ti86     Ti87    10.064   .     S
Ti86     V218    10.064   .     S
Ti87     Ti90    10.064   .     S
Ti87     V102    10.064   .     S
Ti88     Ti90    10.064   1_655     S
Ti88     Ti89    10.064   .     S
Ti88     V301    10.064   .     S
Ti89     Ti85    10.064   1_655     S
Ti89     V153    10.064   .     S
Ti90     Ti88    10.064   1_455     S
Ti90     V349    10.064   .     S
Er91     V102    9.96   .     S
Er91     V93    9.96   .     S
Er91     Ce359    9.963   .     S
Er91     Er96    9.962   .     S
Er91     Er99    9.962   .     S
Er92     V93    9.96   .     S
Er92     V98    9.96   .     S
Er92     Ce125    9.963   .     S
Er92     Er94    9.962   .     S
Er92     Er100    9.962   .     S
V93     V102    10.065   .     S
V93     V98    10.065   .     S
Er94     V97    9.96   .     S
Er94     V95    9.96   .     S
Er94     Ce126    9.963   .     S
Er94     Er100    9.962   .     S
V95     V97    10.065   .     S
V95     V101    10.065   .     S
V95     Er99    9.96   .     S
Er96     V98    9.96   .     S
Er96     V97    9.96   .     S
Er96     Ce360    9.963   .     S
Er96     Er99    9.962   .     S
V97     V98    10.065   .     S
Er99     V101    9.96   .     S
Er99     Ce358    9.963   .     S
Er100     V101    9.96   .     S
Er100     V102    9.96   .     S
Er100     Ce124    9.963   .     S
V101     V102    10.065   .     S
Er103     V112    9.96   .     S
Er103     V104    9.96   .     S
Er103     Ce177    9.963   .     S
Er103     Er114    9.962   .     S
Er103     Er107    9.962   .     S
V104     V112    10.065   .     S
V104     V106    10.065   .     S
V104     Ti383    10.064   .     S
V104     Er105    9.96   .     S
Er105     V106    9.96   .     S
Er105     Ce119    9.963   .     S
Er105     Er108    9.962   .     S
Er105     Er111    9.962   .     S
V106     V109    10.065   .     S
V106     Er107    9.96   .     S
Er107     V109    9.96   .     S
Er107     Ce175    9.963   .     S
Er107     Er114    9.962   .     S
Er108     V110    9.96   .     S
Er108     V109    9.96   .     S
Er108     Ce120    9.963   .     S
Er108     Er111    9.962   .     S
V109     V110    10.065   .     S
V110     V113    10.065   .     S
V110     Er114    9.96   .     S
Er111     V113    9.96   .     S
Er111     V112    9.96   .     S
Er111     Ce118    9.963   .     S
V112     V113    10.065   .     S
V113     Er114    9.96   .     S
Er114     Ce176    9.963   .     S
Ce115     Er127    9.963   .     S
Ce115     Ce124    9.961   .     S
Ce115     Ce121    9.961   .     S
Ce116     Er131    9.963   .     S
Ce116     Ce126    9.961   .     S
Ce116     Ce120    9.961   .     S
Ce117     Er135    9.963   .     S
Ce117     Ce119    9.961   .     S
Ce117     Ce122    9.961   .     S
Ce118     Ce125    9.961   .     S
Ce118     Ce123    9.961   .     S
Ce119     Ce122    9.961   .     S
Ce120     Ce126    9.961   .     S
Ce121     Er220    9.963   .     S
Ce121     Ce124    9.961   .     S
Ce122     Er214    9.963   .     S
Ce123     Er216    9.963   .     S
Ce123     Ce125    9.961   .     S
Er127     Er135    9.962   .     S
Er127     Er131    9.962   .     S
Er127     V128    9.96   .     S
Er127     V129    9.96   .     S
V128     V129    10.065   .     S
V128     V133    10.065   .     S
V128     Er130    9.96   .     S
V129     V136    10.065   .     S
V129     Er138    9.96   .     S
Er130     V133    9.96   .     S
Er130     Ce147    9.963   .     S
Er130     Er138    9.962   .     S
Er130     Er134    9.962   .     S
Er131     Er135    9.962   .     S
Er131     V132    9.96   .     S
Er131     V133    9.96   .     S
V132     V133    10.065   .     S
V132     V137    10.065   .     S
V132     Er134    9.96   .     S
Er134     V137    9.96   .     S
Er134     Ce145    9.963   .     S
Er134     Er138    9.962   .     S
Er135     V136    9.96   .     S
Er135     V137    9.96   .     S
V136     V137    10.065   .     S
V136     Er138    9.96   .     S
Er138     Ce146    9.963   .     S
Ce139     Er259    9.963   .     S
Ce139     Ce143    9.961   .     S
Ce139     Ce149    9.961   .     S
Ce140     Er267    9.963   .     S
Ce140     Ce144    9.961   .     S
Ce140     Ce147    9.961   .     S
Ce141     Er263    9.963   .     S
Ce141     Ce146    9.961   .     S
Ce141     Ce148    9.961   .     S
Ce142     Er302    9.963   .     S
Ce142     Ce145    9.961   .     S
Ce142     Ce150    9.961   .     S
Ce143     Er306    9.963   .     S
Ce143     Ce149    9.961   .     S
Ce144     Er298    9.963   .     S
Ce144     Ce147    9.961   .     S
Ce145     Ce150    9.961   .     S
Ce146     Ce148    9.961   .     S
Ce148     Er158    9.963   .     S
Ce149     Er151    9.963   .     S
Ce150     Er162    9.963   .     S
Er151     Er162    9.962   .     S
Er151     Er158    9.962   .     S
Er151     V157    9.96   .     S
Er151     V154    9.96   .     S
Er152     V154    9.96   .     S
Er152     V153    9.96   .     S
Er152     Ce201    9.963   .     S
Er152     Er159    9.962   .     S
Er152     Er155    9.962   .     S
V153     V154    10.065   .     S
V153     V160    10.065   .     S
V153     Er162    9.96   .     S
V154     V157    10.065   .     S
Er155     V157    9.96   .     S
Er155     V156    9.96   .     S
Er155     Ce200    9.963   .     S
Er155     Er159    9.962   .     S
V156     V157    10.065   .     S
V156     V161    10.065   .     S
V156     Er158    9.96   .     S
Er158     Er162    9.962   .     S
Er158     V161    9.96   .     S
Er159     V161    9.96   .     S
Er159     V160    9.96   .     S
Er159     Ce199    9.963   .     S
V160     V161    10.065   .     S
V160     Er162    9.96   .     S
Er163     V173    9.96   .     S
Er163     V164    9.96   1_545     S
Er163     Ce179    9.963   .     S
Er163     Er165    9.962   .     S
Er163     Er169    9.962   .     S
V164     V173    10.065   1_565     S
V164     V171    10.065   .     S
V164     Er163    9.96   1_565     S
V164     Er167    9.96   1_554     S
Er165     V174    9.96   .     S
Er165     V166    9.96   1_554     S
Er165     Ce178    9.963   .     S
Er165     Er169    9.962   .     S
V166     V174    10.065   1_556     S
V166     V170    10.065   .     S
V166     Er165    9.96   1_556     S
V166     Er168    9.96   1_545     S
Er167     V164    9.96   1_556     S
Er167     V171    9.96   1_556     S
Er167     Ce293    9.963   .     S
Er167     Er168    9.962   .     S
Er167     Er172    9.962   .     S
Er168     V166    9.96   1_565     S
Er168     V170    9.96   1_565     S
Er168     Ce292    9.963   .     S
Er168     Er172    9.962   .     S
Er169     V170    9.96   1_554     S
Er169     V171    9.96   1_545     S
Er169     Ce180    9.963   .     S
V170     V171    10.065   1_546     S
V170     Er168    9.96   1_545     S
V170     Er169    9.96   1_556     S
V171     V170    10.065   1_564     S
V171     Er167    9.96   1_554     S
V171     Er169    9.96   1_565     S
Er172     V173    9.96   1_566     S
Er172     V174    9.96   1_566     S
Er172     Ce294    9.963   .     S
V173     V164    10.065   1_545     S
V173     V174    10.065   .     S
V173     Er172    9.96   1_544     S
V174     V166    10.065   1_554     S
V174     Er172    9.96   1_544     S
Ce175     Ce182    9.961   .     S
Ce175     Ce184    9.961   .     S
Ce176     Ce183    9.961   .     S
Ce176     Ce179    9.961   .     S
Ce177     Ce185    9.961   .     S
Ce177     Ce178    9.961   .     S
Ce178     Ce185    9.961   .     S
Ce179     Ce183    9.961   .     S
Ce180     Ce181    9.961   .     S
Ce180     Ce186    9.961   .     S
Ce181     Er191    9.963   .     S
Ce181     Ce186    9.961   .     S
Ce182     Er190    9.963   .     S
Ce182     Ce184    9.961   .     S
Ce183     Er195    9.963   .     S
Ce184     Er310    9.963   .     S
Ce185     Er316    9.963   .     S
Ce186     Er314    9.963   .     S
Er187     V189    9.96   1_565     S
Er187     V188    9.96   1_565     S
Er187     Ce204    9.963   .     S
Er187     Er196    9.962   .     S
Er187     Er193    9.962   .     S
V188     V189    10.065   .     S
V188     V192    10.065   1_545     S
V188     Er187    9.96   1_545     S
V188     Er191    9.96   .     S
V189     V198    10.065   .     S
V189     Er187    9.96   1_545     S
V189     Er190    9.96   .     S
Er190     Er191    9.962   .     S
Er190     Er195    9.962   .     S
Er190     V198    9.96   .     S
Er191     Er195    9.962   .     S
Er191     V192    9.96   1_545     S
V192     V188    10.065   1_565     S
V192     V197    10.065   .     S
V192     Er191    9.96   1_565     S
V192     Er196    9.96   .     S
Er193     V198    9.96   1_565     S
Er193     V194    9.96   1_565     S
Er193     Ce203    9.963   .     S
Er193     Er196    9.962   .     S
V194     V198    10.065   .     S
V194     V197    10.065   1_545     S
V194     Er193    9.96   1_545     S
V194     Er195    9.96   .     S
Er195     V197    9.96   1_545     S
Er196     V197    9.96   .     S
Er196     Ce202    9.963   .     S
V197     V194    10.065   1_565     S
V197     Er195    9.96   1_565     S
V198     Er193    9.96   1_545     S
Ce199     Ce202    9.961   .     S
Ce199     Ce210    9.961   .     S
Ce200     Ce203    9.961   .     S
Ce200     Ce206    9.961   .     S
Ce201     Ce209    9.961   .     S
Ce201     Ce205    9.961   .     S
Ce202     Ce210    9.961   .     S
Ce203     Ce206    9.961   .     S
Ce204     Ce208    9.961   .     S
Ce204     Ce207    9.961   .     S
Ce205     Er371    9.963   .     S
Ce205     Ce209    9.961   .     S
Ce206     Er373    9.963   .     S
Ce207     Er376    9.963   .     S
Ce207     Ce208    9.961   .     S
Ce208     Er223    9.963   .     S
Ce209     Er231    9.963   .     S
Ce210     Er228    9.963   .     S
Er211     V222    9.96   .     S
Er211     V215    9.96   .     S
Er211     Ce235    9.963   .     S
Er211     Er217    9.962   .     S
Er211     Er212    9.962   .     S
Er212     V221    9.96   .     S
Er212     V213    9.96   .     S
Er212     Ce236    9.963   .     S
Er212     Er217    9.962   .     S
V213     V215    10.065   .     S
V213     V221    10.065   .     S
V213     Er214    9.96   .     S
Er214     Er220    9.962   .     S
Er214     Er216    9.962   .     S
Er214     V215    9.96   .     S
V215     V222    10.065   .     S
V215     Ti384    10.064   .     S
Er216     Er220    9.962   .     S
Er216     V222    9.96   .     S
Er216     V219    9.96   .     S
Er217     V219    9.96   .     S
Er217     V218    9.96   .     S
Er217     Ce237    9.963   .     S
V218     V219    10.065   .     S
V218     V221    10.065   .     S
V218     Er220    9.96   .     S
V219     V222    10.065   .     S
Er220     V221    9.96   .     S
Er223     Er228    9.962   .     S
Er223     Er231    9.962   .     S
Er223     V225    9.96   1_655     S
Er223     V224    9.96   1_655     S
V224     V225    10.065   .     S
V224     V230    10.065   1_455     S
V224     Er223    9.96   1_455     S
V224     Er226    9.96   .     S
V225     V234    10.065   .     S
V225     Er223    9.96   1_455     S
V225     Er233    9.96   .     S
Er226     V230    9.96   1_455     S
Er226     Ce239    9.963   .     S
Er226     Er233    9.962   .     S
Er226     Er227    9.962   .     S
Er227     V229    9.96   1_455     S
Er227     V232    9.96   .     S
Er227     Ce238    9.963   .     S
Er227     Er233    9.962   .     S
Er228     Er231    9.962   .     S
Er228     V230    9.96   .     S
Er228     V229    9.96   .     S
V229     V230    10.065   .     S
V229     V232    10.065   1_655     S
V229     Er227    9.96   1_655     S
V230     V224    10.065   1_655     S
V230     Er226    9.96   1_655     S
Er231     V234    9.96   1_655     S
Er231     V232    9.96   1_655     S
V232     V229    10.065   1_455     S
V232     V234    10.065   .     S
V232     Er231    9.96   1_455     S
Er233     V234    9.96   .     S
Er233     Ce240    9.963   .     S
V234     Er231    9.96   1_455     S
Ce235     Ce241    9.961   .     S
Ce235     Ce244    9.961   .     S
Ce236     Ce240    9.961   .     S
Ce236     Ce245    9.961   .     S
Ce237     Ce242    9.961   .     S
Ce237     Ce238    9.961   .     S
Ce238     Ce242    9.961   .     S
Ce239     Ce243    9.961   .     S
Ce239     Ce246    9.961   .     S
Ce240     Ce245    9.961   .     S
Ce241     Er247    9.963   .     S
Ce241     Ce244    9.961   .     S
Ce242     Er249    9.963   .     S
Ce243     Er252    9.963   .     S
Ce243     Ce246    9.961   .     S
Ce244     Er277    9.963   .     S
Ce245     Er271    9.963   .     S
Ce246     Er275    9.963   .     S
Er247     Er249    9.962   .     S
Er247     Er252    9.962   .     S
Er247     V257    9.96   .     S
Er247     V248    9.96   1_554     S
V248     V257    10.065   1_556     S
V248     V253    10.065   .     S
V248     Er247    9.96   1_556     S
V248     Er251    9.96   1_455     S
Er249     Er252    9.962   .     S
Er249     V258    9.96   .     S
Er249     V250    9.96   1_455     S
V250     V258    10.065   1_655     S
V250     V255    10.065   .     S
V250     Er249    9.96   1_655     S
V250     Er254    9.96   1_554     S
Er251     V248    9.96   1_655     S
Er251     V253    9.96   1_655     S
Er251     Ce328    9.963   .     S
Er251     Er254    9.962   .     S
Er251     Er256    9.962   .     S
Er252     V255    9.96   1_455     S
Er252     V253    9.96   1_554     S
V253     V255    10.065   1_456     S
V253     Er251    9.96   1_455     S
V253     Er252    9.96   1_556     S
Er254     V250    9.96   1_556     S
Er254     V255    9.96   1_556     S
Er254     Ce329    9.963   .     S
Er254     Er256    9.962   .     S
V255     V253    10.065   1_654     S
V255     Er252    9.96   1_655     S
V255     Er254    9.96   1_554     S
Er256     V257    9.96   1_656     S
Er256     V258    9.96   1_656     S
Er256     Ce330    9.963   .     S
V257     V248    10.065   1_554     S
V257     V258    10.065   .     S
V257     Er256    9.96   1_454     S
V258     V250    10.065   1_455     S
V258     Er256    9.96   1_454     S
Er259     Er263    9.962   .     S
Er259     Er267    9.962   .     S
Er259     V262    9.96   .     S
Er259     V265    9.96   .     S
Er260     V262    9.96   .     S
Er260     V261    9.96   .     S
Er260     Ce284    9.963   .     S
Er260     Er268    9.962   .     S
Er260     Er264    9.962   .     S
V261     V262    10.065   .     S
V261     V269    10.065   .     S
V261     Er263    9.96   .     S
V262     V265    10.065   .     S
Er263     Er267    9.962   .     S
Er263     V269    9.96   .     S
Er264     V265    9.96   .     S
Er264     V266    9.96   .     S
Er264     Ce285    9.963   .     S
Er264     Er268    9.962   .     S
V265     V266    10.065   .     S
V266     V270    10.065   .     S
V266     Ti380    10.064   .     S
V266     Er267    9.96   .     S
Er267     V270    9.96   .     S
Er268     V270    9.96   .     S
Er268     V269    9.96   .     S
Er268     Ce283    9.963   .     S
V269     V270    10.065   .     S
Er271     Er275    9.962   .     S
Er271     Er277    9.962   .     S
Er271     V282    9.96   .     S
Er271     V273    9.96   .     S
Er272     V273    9.96   1_556     S
Er272     V274    9.96   1_556     S
Er272     Ce288    9.963   .     S
Er272     Er278    9.962   .     S
Er272     Er280    9.962   .     S
V273     V282    10.065   .     S
V273     V274    10.065   .     S
V273     Er272    9.96   1_554     S
V274     V276    10.065   1_554     S
V274     Er272    9.96   1_554     S
V274     Er275    9.96   .     S
Er275     Er277    9.962   .     S
Er275     V276    9.96   1_554     S
V276     V274    10.065   1_556     S
V276     V279    10.065   .     S
V276     Er275    9.96   1_556     S
V276     Er278    9.96   .     S
Er277     V279    9.96   1_554     S
Er277     V281    9.96   .     S
Er278     V279    9.96   .     S
Er278     Ce287    9.963   .     S
Er278     Er280    9.962   .     S
V279     V281    10.065   1_556     S
V279     Er277    9.96   1_556     S
Er280     V282    9.96   1_556     S
Er280     V281    9.96   1_556     S
Er280     Ce286    9.963   .     S
V281     V282    10.065   .     S
V281     V279    10.065   1_554     S
V281     Ti382    10.064   .     S
V281     Er280    9.96   1_554     S
V282     Er280    9.96   1_554     S
Ce283     Ce287    9.961   .     S
Ce283     Ce289    9.961   .     S
Ce284     Ce292    9.961   .     S
Ce284     Ce290    9.961   .     S
Ce285     Ce293    9.961   .     S
Ce285     Ce286    9.961   .     S
Ce286     Ce293    9.961   .     S
Ce287     Ce289    9.961   .     S
Ce288     Ce294    9.961   .     S
Ce288     Ce291    9.961   .     S
Ce289     Er341    9.963   .     S
Ce290     Er334    9.963   .     S
Ce290     Ce292    9.961   .     S
Ce291     Er331    9.963   .     S
Ce291     Ce294    9.961   .     S
Er295     V296    9.96   .     S
Er295     V297    9.96   .     S
Er295     Ce319    9.963   .     S
Er295     Er299    9.962   .     S
Er295     Er303    9.962   .     S
V296     V305    10.065   .     S
V296     V297    10.065   .     S
V296     Er298    9.96   .     S
V297     V301    10.065   .     S
V297     Er302    9.96   .     S
Er298     Er306    9.962   .     S
Er298     Er302    9.962   .     S
Er298     V305    9.96   .     S
Er299     V300    9.96   .     S
Er299     V301    9.96   .     S
Er299     Ce321    9.963   .     S
Er299     Er303    9.962   .     S
V300     V301    10.065   .     S
V300     V304    10.065   .     S
V300     Er306    9.96   .     S
V301     Er302    9.96   .     S
Er302     Er306    9.962   .     S
Er303     V304    9.96   .     S
Er303     V305    9.96   .     S
Er303     Ce320    9.963   .     S
V304     V305    10.065   .     S
V304     Er306    9.96   .     S
V305     Ti379    10.064   .     S
Er307     V308    9.96   1_556     S
Er307     V309    9.96   1_556     S
Er307     Ce324    9.963   .     S
Er307     Er317    9.962   .     S
Er307     Er312    9.962   .     S
V308     V309    10.065   .     S
V308     V311    10.065   .     S
V308     Er307    9.96   1_554     S
V308     Er310    9.96   .     S
V309     V315    10.065   1_554     S
V309     Er307    9.96   1_554     S
V309     Er314    9.96   .     S
Er310     Er314    9.962   .     S
Er310     Er316    9.962   .     S
Er310     V311    9.96   .     S
V311     V313    10.065   .     S
V311     Er312    9.96   1_554     S
Er312     V311    9.96   1_556     S
Er312     V313    9.96   1_556     S
Er312     Ce322    9.963   .     S
Er312     Er317    9.962   .     S
V313     V318    10.065   1_554     S
V313     Ti381    10.064   .     S
V313     Er312    9.96   1_554     S
V313     Er316    9.96   .     S
Er314     Er316    9.962   .     S
Er314     V315    9.96   1_554     S
V315     V318    10.065   .     S
V315     V309    10.065   1_556     S
V315     Er314    9.96   1_556     S
V315     Er317    9.96   .     S
Er316     V318    9.96   1_554     S
Er317     V318    9.96   .     S
Er317     Ce323    9.963   .     S
V318     V313    10.065   1_556     S
V318     Er316    9.96   1_556     S
Ce319     Ce323    9.961   .     S
Ce319     Ce325    9.961   .     S
Ce320     Ce329    9.961   .     S
Ce320     Ce322    9.961   .     S
Ce321     Ce328    9.961   .     S
Ce321     Ce326    9.961   .     S
Ce322     Ce329    9.961   .     S
Ce323     Ce325    9.961   .     S
Ce324     Ce330    9.961   .     S
Ce324     Ce327    9.961   .     S
Ce325     Er345    9.963   .     S
Ce326     Er348    9.963   .     S
Ce326     Ce328    9.961   .     S
Ce327     Er352    9.963   .     S
Ce327     Ce330    9.961   .     S
Er331     Er341    9.962   .     S
Er331     Er334    9.962   .     S
Er331     V333    9.96   1_565     S
Er331     V332    9.96   1_565     S
V332     V333    10.065   .     S
V332     V339    10.065   1_545     S
V332     Er331    9.96   1_545     S
V332     Er338    9.96   .     S
V333     V337    10.065   .     S
V333     Er331    9.96   1_545     S
V333     Er336    9.96   .     S
Er334     Er341    9.962   .     S
Er334     V337    9.96   1_565     S
Er334     V335    9.96   1_565     S
V335     V337    10.065   .     S
V335     V342    10.065   1_545     S
V335     Er334    9.96   1_545     S
V335     Er340    9.96   .     S
Er336     V337    9.96   .     S
Er336     Ce362    9.963   .     S
Er336     Er338    9.962   .     S
Er336     Er340    9.962   .     S
V337     Er334    9.96   1_545     S
Er338     V339    9.96   1_545     S
Er338     Ce363    9.963   .     S
Er338     Er340    9.962   .     S
V339     V332    10.065   1_565     S
V339     V342    10.065   .     S
V339     Er338    9.96   1_565     S
V339     Er341    9.96   .     S
Er340     V342    9.96   1_545     S
Er340     Ce361    9.963   .     S
Er341     V342    9.96   .     S
V342     V335    10.065   1_565     S
V342     Er340    9.96   1_565     S
Er343     V353    9.96   .     S
Er343     V344    9.96   1_455     S
Er343     Ce356    9.963   .     S
Er343     Er351    9.962   .     S
Er343     Er346    9.962   .     S
V344     V347    10.065   .     S
V344     V353    10.065   1_655     S
V344     Er343    9.96   1_655     S
V344     Er345    9.96   .     S
Er345     Er348    9.962   .     S
Er345     Er352    9.962   .     S
Er345     V347    9.96   .     S
Er346     V347    9.96   1_455     S
Er346     V349    9.96   .     S
Er346     Ce355    9.963   .     S
Er346     Er351    9.962   .     S
V347     V349    10.065   1_655     S
V347     Er346    9.96   1_655     S
Er348     Er352    9.962   .     S
Er348     V350    9.96   1_655     S
Er348     V349    9.96   1_655     S
V349     V347    10.065   1_455     S
V349     V350    10.065   .     S
V349     Er348    9.96   1_455     S
V350     V354    10.065   .     S
V350     Er348    9.96   1_455     S
V350     Er351    9.96   .     S
Er351     V354    9.96   .     S
Er351     Ce357    9.963   .     S
Er352     V354    9.96   1_655     S
Er352     V353    9.96   1_655     S
V353     V344    10.065   1_455     S
V353     V354    10.065   .     S
V353     Er352    9.96   1_455     S
V354     Er352    9.96   1_455     S
Ce355     Ce365    9.961   .     S
Ce355     Ce359    9.961   .     S
Ce356     Ce366    9.961   .     S
Ce356     Ce363    9.961   .     S
Ce357     Ce358    9.961   .     S
Ce357     Ce362    9.961   .     S
Ce358     Ce362    9.961   .     S
Ce359     Ce365    9.961   .     S
Ce360     Ce364    9.961   .     S
Ce360     Ce361    9.961   .     S
Ce361     Ce364    9.961   .     S
Ce363     Ce366    9.961   .     S
Ce364     Er367    9.963   .     S
Ce365     Er369    9.963   .     S
Ce366     Er372    9.963   .     S
Er367     Er369    9.962   .     S
Er367     Er372    9.962   .     S
Er367     V378    9.96   .     S
Er367     V368    9.96   1_545     S
V368     V378    10.065   1_565     S
V368     V375    10.065   .     S
V368     Er367    9.96   1_565     S
V368     Er371    9.96   1_455     S
Er369     Er372    9.962   .     S
Er369     V377    9.96   .     S
Er369     V370    9.96   1_455     S
V370     V377    10.065   1_655     S
V370     V374    10.065   .     S
V370     Er369    9.96   1_655     S
V370     Er373    9.96   1_545     S
Er371     Er373    9.962   .     S
Er371     Er376    9.962   .     S
Er371     V368    9.96   1_655     S
Er371     V375    9.96   1_655     S
Er372     V375    9.96   1_545     S
Er372     V374    9.96   1_455     S
Er373     Er376    9.962   .     S
Er373     V370    9.96   1_565     S
Er373     V374    9.96   1_565     S
V374     V375    10.065   1_645     S
V374     Er372    9.96   1_655     S
V374     Er373    9.96   1_545     S
V375     V374    10.065   1_465     S
V375     Er371    9.96   1_455     S
V375     Er372    9.96   1_565     S
Er376     V377    9.96   1_665     S
Er376     V378    9.96   1_665     S
V377     V370    10.065   1_455     S
V377     V378    10.065   .     S
V377     Er376    9.96   1_445     S
V378     V368    10.065   1_545     S
V378     Er376    9.96   1_445     S
Ti379     Ti380    10.064   .     S
Ti379     Ti381    10.064   1_556     S
Ti380     Ti382    10.064   1_556     S
Ti381     Ti379    10.064   1_554     S
Ti381     Ti383    10.064   .     S
Ti382     Ti384    10.064   .     S
Ti382     Ti380    10.064   1_554     S
Ti383     Ti384    10.064   .     S
