data_spla
_audit_creation_date              2020-02-02
_audit_creation_method            'Pymatgen'
_symmetry_space_group_name_H-M    'P1'
_symmetry_Int_Tables_number       1
loop_
_symmetry_equiv_pos_as_xyz
  x,y,z
_cell_length_a                    95.4696
_cell_length_b                    95.4696
_cell_length_c                    95.4696
_cell_angle_alpha                 90.0
_cell_angle_beta                 90.0
_cell_angle_gamma                 90.0
loop_
_atom_site_label
_atom_site_type_symbol
_atom_site_fract_x
_atom_site_fract_y
_atom_site_fract_z
Ti1     Ti     0.75   0.1759   0.0
Ti2     Ti     0.75   0.25   0.0741
Ti3     Ti     0.75   0.3241   0.0
Ti4     Ti     0.8241   0.25   0.0
Ti5     Ti     0.6759   0.25   0.0
Ti6     Ti     0.75   0.25   0.9259
Ce7     Ce     0.5028   0.0028   0.8213
Ce8     Ce     0.4287   0.0028   0.7472
Ce9     Ce     0.5028   0.9287   0.7472
Er10     Er     0.5275   0.0275   0.7225
Ce11     Ce     0.7472   0.9287   0.5028
Ce12     Ce     0.7472   0.0028   0.4287
Ce13     Ce     0.8213   0.0028   0.5028
Er14     Er     0.7225   0.0275   0.5275
Ce15     Ce     0.5028   0.3213   0.5028
Ce16     Ce     0.4287   0.2472   0.5028
Ce17     Ce     0.5028   0.2472   0.4287
Er18     Er     0.5275   0.2225   0.5275
V19     V     0.662   0.162   0.662
V20     V     0.588   0.162   0.588
V21     V     0.662   0.088   0.588
V22     V     0.588   0.088   0.662
Ce23     Ce     0.8213   0.2472   0.7472
Ce24     Ce     0.7472   0.3213   0.7472
Ce25     Ce     0.7472   0.2472   0.8213
Er26     Er     0.7225   0.2225   0.7225
Ce27     Ce     0.2472   0.7472   0.8213
Ce28     Ce     0.3213   0.7472   0.7472
Ce29     Ce     0.2472   0.8213   0.7472
Er30     Er     0.2225   0.7225   0.7225
Ce31     Ce     0.2472   0.5028   0.4287
Ce32     Ce     0.2472   0.4287   0.5028
Ce33     Ce     0.3213   0.5028   0.5028
Er34     Er     0.2225   0.5275   0.5275
Ce35     Ce     0.0028   0.5028   0.8213
Ce36     Ce     0.0028   0.4287   0.7472
Ce37     Ce     0.9287   0.5028   0.7472
Er38     Er     0.0275   0.5275   0.7225
Ce39     Ce     0.9287   0.7472   0.5028
Ce40     Ce     0.0028   0.7472   0.4287
Ce41     Ce     0.0028   0.8213   0.5028
Er42     Er     0.0275   0.7225   0.5275
V43     V     0.162   0.662   0.662
V44     V     0.162   0.588   0.588
V45     V     0.088   0.588   0.662
V46     V     0.088   0.662   0.588
Ti47     Ti     0.5   0.75   0.8241
Ti48     Ti     0.5   0.8241   0.75
Ti49     Ti     0.5   0.6759   0.75
Ti50     Ti     0.5741   0.75   0.75
Ti51     Ti     0.4259   0.75   0.75
Ti52     Ti     0.5   0.75   0.6759
Ti53     Ti     0.4259   0.0   0.0
Ti54     Ti     0.5   0.0741   0.0
Ti55     Ti     0.5   0.0   0.0741
Ti56     Ti     0.5741   0.0   0.0
Ti57     Ti     0.5   0.9259   0.0
Ti58     Ti     0.5   0.0   0.9259
Ti59     Ti     0.5   0.5   0.5741
Ti60     Ti     0.5   0.5741   0.5
Ti61     Ti     0.5741   0.5   0.5
Ti62     Ti     0.5   0.5   0.4259
Ti63     Ti     0.5   0.4259   0.5
Ti64     Ti     0.4259   0.5   0.5
Ti65     Ti     0.0   0.5741   0.0
Ti66     Ti     0.0   0.4259   0.0
Ti67     Ti     0.0741   0.5   0.0
Ti68     Ti     0.0   0.5   0.0741
Ti69     Ti     0.9259   0.5   0.0
Ti70     Ti     0.0   0.5   0.9259
Ti71     Ti     0.5741   0.25   0.25
Ti72     Ti     0.5   0.25   0.3241
Ti73     Ti     0.5   0.3241   0.25
Ti74     Ti     0.5   0.1759   0.25
Ti75     Ti     0.4259   0.25   0.25
Ti76     Ti     0.5   0.25   0.1759
Ce77     Ce     0.4972   0.1787   0.9972
Ce78     Ce     0.5713   0.2528   0.9972
Ce79     Ce     0.4972   0.2528   0.0713
Er80     Er     0.4725   0.2775   0.9725
Ce81     Ce     0.2528   0.5713   0.9972
Ce82     Ce     0.1787   0.4972   0.9972
Ce83     Ce     0.2528   0.4972   0.0713
Er84     Er     0.2775   0.4725   0.9725
Ce85     Ce     0.5713   0.4972   0.7528
Ce86     Ce     0.4972   0.5713   0.7528
Ce87     Ce     0.4972   0.4972   0.6787
Er88     Er     0.4725   0.4725   0.7775
V89     V     0.412   0.338   0.912
V90     V     0.338   0.338   0.838
V91     V     0.412   0.412   0.838
V92     V     0.338   0.412   0.912
Ce93     Ce     0.2528   0.1787   0.7528
Ce94     Ce     0.2528   0.2528   0.6787
Ce95     Ce     0.1787   0.2528   0.7528
Er96     Er     0.2775   0.2775   0.7775
Ce97     Ce     0.1787   0.9972   0.4972
Ce98     Ce     0.2528   0.9972   0.5713
Ce99     Ce     0.2528   0.0713   0.4972
Er100     Er     0.2775   0.9725   0.4725
Ce101     Ce     0.1787   0.7528   0.2528
Ce102     Ce     0.2528   0.6787   0.2528
Ce103     Ce     0.2528   0.7528   0.1787
Er104     Er     0.2775   0.7775   0.2775
Ce105     Ce     0.4972   0.6787   0.4972
Ce106     Ce     0.5713   0.7528   0.4972
Ce107     Ce     0.4972   0.7528   0.5713
Er108     Er     0.4725   0.7775   0.4725
Ce109     Ce     0.4972   0.9972   0.1787
Ce110     Ce     0.5713   0.9972   0.2528
Ce111     Ce     0.4972   0.0713   0.2528
Er112     Er     0.4725   0.9725   0.2775
V113     V     0.338   0.838   0.338
V114     V     0.412   0.912   0.338
V115     V     0.338   0.912   0.412
V116     V     0.412   0.838   0.412
Ti117     Ti     0.1759   0.5   0.25
Ti118     Ti     0.25   0.5   0.1759
Ti119     Ti     0.25   0.5741   0.25
Ti120     Ti     0.25   0.4259   0.25
Ti121     Ti     0.3241   0.5   0.25
Ti122     Ti     0.25   0.5   0.3241
Ti123     Ti     0.1759   0.25   0.5
Ti124     Ti     0.3241   0.25   0.5
Ti125     Ti     0.25   0.1759   0.5
Ti126     Ti     0.25   0.25   0.4259
Ti127     Ti     0.25   0.25   0.5741
Ti128     Ti     0.25   0.3241   0.5
Ti129     Ti     0.75   0.5   0.8241
Ti130     Ti     0.75   0.5   0.6759
Ti131     Ti     0.75   0.5741   0.75
Ti132     Ti     0.8241   0.5   0.75
Ti133     Ti     0.75   0.4259   0.75
Ti134     Ti     0.6759   0.5   0.75
Ce135     Ce     0.9972   0.4972   0.1787
Ce136     Ce     0.9972   0.5713   0.2528
Ce137     Ce     0.0713   0.4972   0.2528
Er138     Er     0.9725   0.4725   0.2775
Ce139     Ce     0.9972   0.2528   0.5713
Ce140     Ce     0.9972   0.1787   0.4972
Ce141     Ce     0.0713   0.2528   0.4972
Er142     Er     0.9725   0.2775   0.4725
Ce143     Ce     0.7528   0.2528   0.1787
Ce144     Ce     0.7528   0.1787   0.2528
Ce145     Ce     0.6787   0.2528   0.2528
Er146     Er     0.7775   0.2775   0.2775
V147     V     0.838   0.412   0.412
V148     V     0.838   0.338   0.338
V149     V     0.912   0.338   0.412
V150     V     0.912   0.412   0.338
Ce151     Ce     0.7528   0.5713   0.4972
Ce152     Ce     0.6787   0.4972   0.4972
Ce153     Ce     0.7528   0.4972   0.5713
Er154     Er     0.7775   0.4725   0.4725
Ti155     Ti     0.0   0.0   0.5741
Ti156     Ti     0.0   0.0   0.4259
Ti157     Ti     0.0741   0.0   0.5
Ti158     Ti     0.0   0.0741   0.5
Ti159     Ti     0.9259   0.0   0.5
Ti160     Ti     0.0   0.9259   0.5
Ti161     Ti     0.25   0.8241   0.0
Ti162     Ti     0.1759   0.75   0.0
Ti163     Ti     0.3241   0.75   0.0
Ti164     Ti     0.25   0.75   0.0741
Ti165     Ti     0.25   0.6759   0.0
Ti166     Ti     0.25   0.75   0.9259
Ti167     Ti     0.0   0.25   0.8241
Ti168     Ti     0.0   0.1759   0.75
Ti169     Ti     0.0741   0.25   0.75
Ti170     Ti     0.0   0.3241   0.75
Ti171     Ti     0.9259   0.25   0.75
Ti172     Ti     0.0   0.25   0.6759
Ti173     Ti     0.75   0.0   0.1759
Ti174     Ti     0.75   0.0   0.3241
Ti175     Ti     0.8241   0.0   0.25
Ti176     Ti     0.75   0.0741   0.25
Ti177     Ti     0.75   0.9259   0.25
Ti178     Ti     0.6759   0.0   0.25
Ce179     Ce     0.9972   0.6787   0.9972
Ce180     Ce     0.9972   0.7528   0.0713
Ce181     Ce     0.0713   0.7528   0.9972
Er182     Er     0.9725   0.7775   0.9725
Ce183     Ce     0.7528   0.7528   0.6787
Ce184     Ce     0.7528   0.6787   0.7528
Ce185     Ce     0.6787   0.7528   0.7528
Er186     Er     0.7775   0.7775   0.7775
Ce187     Ce     0.9972   0.9972   0.6787
Ce188     Ce     0.0713   0.9972   0.7528
Ce189     Ce     0.9972   0.0713   0.7528
Er190     Er     0.9725   0.9725   0.7775
Ce191     Ce     0.6787   0.9972   0.9972
Ce192     Ce     0.7528   0.0713   0.9972
Ce193     Ce     0.7528   0.9972   0.0713
Er194     Er     0.7775   0.9725   0.9725
V195     V     0.912   0.912   0.838
V196     V     0.838   0.912   0.912
V197     V     0.838   0.838   0.838
V198     V     0.912   0.838   0.912
Ti199     Ti     0.25   0.0   0.6759
Ti200     Ti     0.1759   0.0   0.75
Ti201     Ti     0.3241   0.0   0.75
Ti202     Ti     0.25   0.0   0.8241
Ti203     Ti     0.25   0.9259   0.75
Ti204     Ti     0.25   0.0741   0.75
Ce205     Ce     0.2472   0.2472   0.3213
Ce206     Ce     0.3213   0.2472   0.2472
Ce207     Ce     0.2472   0.3213   0.2472
Er208     Er     0.2225   0.2225   0.2225
Ce209     Ce     0.3213   0.0028   0.0028
Ce210     Ce     0.2472   0.9287   0.0028
Ce211     Ce     0.2472   0.0028   0.9287
Er212     Er     0.2225   0.0275   0.0275
Ce213     Ce     0.9287   0.2472   0.0028
Ce214     Ce     0.0028   0.2472   0.9287
Ce215     Ce     0.0028   0.3213   0.0028
Er216     Er     0.0275   0.2225   0.0275
Ce217     Ce     0.9287   0.0028   0.2472
Ce218     Ce     0.0028   0.9287   0.2472
Ce219     Ce     0.0028   0.0028   0.3213
Er220     Er     0.0275   0.0275   0.2225
V221     V     0.088   0.088   0.162
V222     V     0.088   0.162   0.088
V223     V     0.162   0.088   0.088
V224     V     0.162   0.162   0.162
Ti225     Ti     0.0   0.75   0.1759
Ti226     Ti     0.0   0.8241   0.25
Ti227     Ti     0.0   0.75   0.3241
Ti228     Ti     0.0   0.6759   0.25
Ti229     Ti     0.9259   0.75   0.25
Ti230     Ti     0.0741   0.75   0.25
Ti231     Ti     0.8241   0.75   0.5
Ti232     Ti     0.75   0.75   0.4259
Ti233     Ti     0.75   0.8241   0.5
Ti234     Ti     0.75   0.75   0.5741
Ti235     Ti     0.6759   0.75   0.5
Ti236     Ti     0.75   0.6759   0.5
Ce237     Ce     0.4287   0.7472   0.0028
Ce238     Ce     0.5028   0.7472   0.9287
Ce239     Ce     0.5028   0.8213   0.0028
Er240     Er     0.5275   0.7225   0.0275
Ce241     Ce     0.7472   0.5028   0.9287
Ce242     Ce     0.7472   0.4287   0.0028
Ce243     Ce     0.8213   0.5028   0.0028
Er244     Er     0.7225   0.5275   0.0275
Ce245     Ce     0.4287   0.5028   0.2472
Ce246     Ce     0.5028   0.5028   0.3213
Ce247     Ce     0.5028   0.4287   0.2472
Er248     Er     0.5275   0.5275   0.2225
Ce249     Ce     0.7472   0.8213   0.2472
Ce250     Ce     0.8213   0.7472   0.2472
Ce251     Ce     0.7472   0.7472   0.3213
Er252     Er     0.7225   0.7225   0.2225
V253     V     0.588   0.588   0.162
V254     V     0.662   0.662   0.162
V255     V     0.662   0.588   0.088
V256     V     0.588   0.662   0.088
loop_
_geom_bond_atom_site_label_1
_geom_bond_atom_site_label_2
_geom_bond_distance
_geom_bond_site_symmetry_2
_ccdc_geom_bond_type
Ti1     Ce192    10.0   1_554     S
Ti1     Ti4    10.001   .     S
Ti1     Ti2    10.001   .     S
Ti1     Ti5    10.001   .     S
Ti1     Ti6    10.001   1_554     S
Ti2     Ce143    10.0   .     S
Ti2     Ti4    10.001   .     S
Ti2     Ti5    10.001   .     S
Ti2     Ti3    10.001   .     S
Ti3     Ce242    10.0   .     S
Ti3     Ti5    10.001   .     S
Ti3     Ti6    10.001   1_554     S
Ti3     Ti4    10.001   .     S
Ti4     Ce213    10.0   .     S
Ti4     Ti6    10.001   1_554     S
Ti5     Ce78    10.0   1_554     S
Ti5     Ti6    10.001   1_554     S
Ti6     Ce25    10.0   .     S
Ti6     Ti4    10.001   1_556     S
Ti6     Ti5    10.001   1_556     S
Ti6     Ti1    10.001   1_556     S
Ti6     Ti3    10.001   1_556     S
Ce7     Ce8    9.999   .     S
Ce7     Ce9    9.999   1_545     S
Ce7     Er10    10.0   .     S
Ce7     Ti58    10.0   .     S
Ce8     Ce9    9.999   1_545     S
Ce8     Er10    10.0   .     S
Ce8     Ti201    10.0   .     S
Ce9     Ce8    9.999   1_565     S
Ce9     Ce7    9.999   1_565     S
Ce9     Er10    10.0   1_565     S
Ce9     Ti48    10.0   .     S
Er10     Ce9    10.0   1_545     S
Er10     V22    10.001   .     S
Ce11     Ce12    9.999   1_565     S
Ce11     Ce13    9.999   1_565     S
Ce11     Er14    10.0   1_565     S
Ce11     Ti233    10.0   .     S
Ce12     Ce11    9.999   1_545     S
Ce12     Ce13    9.999   .     S
Ce12     Er14    10.0   .     S
Ce12     Ti174    10.0   .     S
Ce13     Ce11    9.999   1_545     S
Ce13     Er14    10.0   .     S
Ce13     Ti159    10.0   .     S
Er14     Ce11    10.0   1_545     S
Er14     V21    10.001   .     S
Ce15     Ce16    9.999   .     S
Ce15     Ce17    9.999   .     S
Ce15     Er18    10.0   .     S
Ce15     Ti63    10.0   .     S
Ce16     Ce17    9.999   .     S
Ce16     Er18    10.0   .     S
Ce16     Ti124    10.0   .     S
Ce17     Er18    10.0   .     S
Ce17     Ti72    10.0   .     S
Er18     V20    10.001   .     S
V19     V20    9.999   .     S
V19     V21    9.999   .     S
V19     V22    9.999   .     S
V19     Er26    10.001   .     S
V20     V21    9.999   .     S
V20     V22    9.999   .     S
V21     V22    9.999   .     S
Ce23     Ce24    9.999   .     S
Ce23     Ce25    9.999   .     S
Ce23     Er26    10.0   .     S
Ce23     Ti171    10.0   .     S
Ce24     Ce25    9.999   .     S
Ce24     Er26    10.0   .     S
Ce24     Ti133    10.0   .     S
Ce25     Er26    10.0   .     S
Ce27     Ce28    9.999   .     S
Ce27     Ce29    9.999   .     S
Ce27     Er30    10.0   .     S
Ce27     Ti166    10.0   .     S
Ce28     Ce29    9.999   .     S
Ce28     Er30    10.0   .     S
Ce28     Ti51    10.0   .     S
Ce29     Er30    10.0   .     S
Ce29     Ti203    10.0   .     S
Er30     V43    10.001   .     S
Ce31     Ce32    9.999   .     S
Ce31     Ce33    9.999   .     S
Ce31     Er34    10.0   .     S
Ce31     Ti122    10.0   .     S
Ce32     Ce33    9.999   .     S
Ce32     Er34    10.0   .     S
Ce32     Ti128    10.0   .     S
Ce33     Er34    10.0   .     S
Ce33     Ti64    10.0   .     S
Er34     V44    10.001   .     S
Ce35     Ce36    9.999   .     S
Ce35     Ce37    9.999   1_455     S
Ce35     Er38    10.0   .     S
Ce35     Ti70    10.0   .     S
Ce36     Ce37    9.999   1_455     S
Ce36     Er38    10.0   .     S
Ce36     Ti170    10.0   .     S
Ce37     Ce35    9.999   1_655     S
Ce37     Ce36    9.999   1_655     S
Ce37     Er38    10.0   1_655     S
Ce37     Ti132    10.0   .     S
Er38     Ce37    10.0   1_455     S
Er38     V45    10.001   .     S
Ce39     Ce40    9.999   1_655     S
Ce39     Ce41    9.999   1_655     S
Ce39     Er42    10.0   1_655     S
Ce39     Ti231    10.0   .     S
Ce40     Ce39    9.999   1_455     S
Ce40     Ce41    9.999   .     S
Ce40     Er42    10.0   .     S
Ce40     Ti227    10.0   .     S
Ce41     Ce39    9.999   1_455     S
Ce41     Er42    10.0   .     S
Ce41     Ti160    10.0   .     S
Er42     Ce39    10.0   1_455     S
Er42     V46    10.001   .     S
V43     V44    9.999   .     S
V43     V45    9.999   .     S
V43     V46    9.999   .     S
V44     V46    9.999   .     S
V44     V45    9.999   .     S
V45     V46    9.999   .     S
Ti47     Ce238    10.0   .     S
Ti47     Ti49    10.001   .     S
Ti47     Ti50    10.001   .     S
Ti47     Ti51    10.001   .     S
Ti47     Ti48    10.001   .     S
Ti48     Ti50    10.001   .     S
Ti48     Ti52    10.001   .     S
Ti48     Ti51    10.001   .     S
Ti49     Ce86    10.0   .     S
Ti49     Ti51    10.001   .     S
Ti49     Ti50    10.001   .     S
Ti49     Ti52    10.001   .     S
Ti50     Ce185    10.0   .     S
Ti50     Ti52    10.001   .     S
Ti51     Ti52    10.001   .     S
Ti52     Ce107    10.0   .     S
Ti53     Ce209    10.0   .     S
Ti53     Ti55    10.001   .     S
Ti53     Ti54    10.001   .     S
Ti53     Ti58    10.001   1_554     S
Ti53     Ti57    10.001   1_545     S
Ti54     Ce77    10.0   1_554     S
Ti54     Ti56    10.001   .     S
Ti54     Ti58    10.001   1_554     S
Ti54     Ti55    10.001   .     S
Ti55     Ce109    10.0   1_545     S
Ti55     Ti56    10.001   .     S
Ti55     Ti57    10.001   1_545     S
Ti56     Ce191    10.0   1_544     S
Ti56     Ti58    10.001   1_554     S
Ti56     Ti57    10.001   1_545     S
Ti57     Ce239    10.0   .     S
Ti57     Ti56    10.001   1_565     S
Ti57     Ti55    10.001   1_565     S
Ti57     Ti53    10.001   1_565     S
Ti57     Ti58    10.001   1_564     S
Ti58     Ti56    10.001   1_556     S
Ti58     Ti54    10.001   1_556     S
Ti58     Ti53    10.001   1_556     S
Ti58     Ti57    10.001   1_546     S
Ti59     Ce87    10.0   .     S
Ti59     Ti63    10.001   .     S
Ti59     Ti64    10.001   .     S
Ti59     Ti61    10.001   .     S
Ti59     Ti60    10.001   .     S
Ti60     Ce105    10.0   .     S
Ti60     Ti64    10.001   .     S
Ti60     Ti62    10.001   .     S
Ti60     Ti61    10.001   .     S
Ti61     Ce152    10.0   .     S
Ti61     Ti62    10.001   .     S
Ti61     Ti63    10.001   .     S
Ti62     Ce246    10.0   .     S
Ti62     Ti64    10.001   .     S
Ti62     Ti63    10.001   .     S
Ti63     Ti64    10.001   .     S
Ti65     Ce179    10.0   1_454     S
Ti65     Ti69    10.001   1_455     S
Ti65     Ti70    10.001   1_554     S
Ti65     Ti68    10.001   .     S
Ti65     Ti67    10.001   .     S
Ti66     Ce215    10.0   .     S
Ti66     Ti67    10.001   .     S
Ti66     Ti68    10.001   .     S
Ti66     Ti69    10.001   1_455     S
Ti66     Ti70    10.001   1_554     S
Ti67     Ce82    10.0   1_554     S
Ti67     Ti70    10.001   1_554     S
Ti67     Ti68    10.001   .     S
Ti68     Ce135    10.0   1_455     S
Ti68     Ti69    10.001   1_455     S
Ti69     Ce243    10.0   .     S
Ti69     Ti65    10.001   1_655     S
Ti69     Ti68    10.001   1_655     S
Ti69     Ti66    10.001   1_655     S
Ti69     Ti70    10.001   1_654     S
Ti70     Ti65    10.001   1_556     S
Ti70     Ti67    10.001   1_556     S
Ti70     Ti66    10.001   1_556     S
Ti70     Ti69    10.001   1_456     S
Ti71     Ce145    10.0   .     S
Ti71     Ti76    10.001   .     S
Ti71     Ti73    10.001   .     S
Ti71     Ti72    10.001   .     S
Ti71     Ti74    10.001   .     S
Ti72     Ti74    10.001   .     S
Ti72     Ti75    10.001   .     S
Ti72     Ti73    10.001   .     S
Ti73     Ce247    10.0   .     S
Ti73     Ti76    10.001   .     S
Ti73     Ti75    10.001   .     S
Ti74     Ce111    10.0   .     S
Ti74     Ti76    10.001   .     S
Ti74     Ti75    10.001   .     S
Ti75     Ce206    10.0   .     S
Ti75     Ti76    10.001   .     S
Ti76     Ce79    10.0   .     S
Ce77     Ti54    10.0   1_556     S
Ce77     Ce79    9.999   1_556     S
Ce77     Ce78    9.999   .     S
Ce77     Er80    10.0   .     S
Ce78     Ti5    10.0   1_556     S
Ce78     Ce79    9.999   1_556     S
Ce78     Er80    10.0   .     S
Ce79     Ce77    9.999   1_554     S
Ce79     Ce78    9.999   1_554     S
Ce79     Er80    10.0   1_554     S
Er80     Ce79    10.0   1_556     S
Er80     V89    10.001   .     S
Ce81     Ce82    9.999   .     S
Ce81     Ce83    9.999   1_556     S
Ce81     Er84    10.0   .     S
Ce81     Ti165    10.0   1_556     S
Ce82     Ti67    10.0   1_556     S
Ce82     Ce83    9.999   1_556     S
Ce82     Er84    10.0   .     S
Ce83     Ce81    9.999   1_554     S
Ce83     Ce82    9.999   1_554     S
Ce83     Er84    10.0   1_554     S
Ce83     Ti118    10.0   .     S
Er84     Ce83    10.0   1_556     S
Er84     V92    10.001   .     S
Ce85     Ce86    9.999   .     S
Ce85     Ce87    9.999   .     S
Ce85     Er88    10.0   .     S
Ce85     Ti134    10.0   .     S
Ce86     Ce87    9.999   .     S
Ce86     Er88    10.0   .     S
Ce87     Er88    10.0   .     S
Er88     V91    10.001   .     S
V89     V92    9.999   .     S
V89     V91    9.999   .     S
V89     V90    9.999   .     S
V90     V91    9.999   .     S
V90     V92    9.999   .     S
V90     Er96    10.001   .     S
V91     V92    9.999   .     S
Ce93     Ce94    9.999   .     S
Ce93     Ce95    9.999   .     S
Ce93     Er96    10.0   .     S
Ce93     Ti204    10.0   .     S
Ce94     Ce95    9.999   .     S
Ce94     Er96    10.0   .     S
Ce94     Ti127    10.0   .     S
Ce95     Er96    10.0   .     S
Ce95     Ti169    10.0   .     S
Ce97     Ce99    9.999   1_565     S
Ce97     Ce98    9.999   .     S
Ce97     Er100    10.0   .     S
Ce97     Ti157    10.0   1_565     S
Ce98     Ce99    9.999   1_565     S
Ce98     Er100    10.0   .     S
Ce98     Ti199    10.0   1_565     S
Ce99     Ce97    9.999   1_545     S
Ce99     Ce98    9.999   1_545     S
Ce99     Er100    10.0   1_545     S
Ce99     Ti125    10.0   .     S
Er100     Ce99    10.0   1_565     S
Er100     V115    10.001   .     S
Ce101     Ce103    9.999   .     S
Ce101     Ce102    9.999   .     S
Ce101     Er104    10.0   .     S
Ce101     Ti230    10.0   .     S
Ce102     Ce103    9.999   .     S
Ce102     Er104    10.0   .     S
Ce102     Ti119    10.0   .     S
Ce103     Er104    10.0   .     S
Ce103     Ti164    10.0   .     S
Er104     V113    10.001   .     S
Ce105     Ce106    9.999   .     S
Ce105     Ce107    9.999   .     S
Ce105     Er108    10.0   .     S
Ce106     Ce107    9.999   .     S
Ce106     Er108    10.0   .     S
Ce106     Ti235    10.0   .     S
Ce107     Er108    10.0   .     S
Er108     V116    10.001   .     S
Ce109     Ti55    10.0   1_565     S
Ce109     Ce111    9.999   1_565     S
Ce109     Ce110    9.999   .     S
Ce109     Er112    10.0   .     S
Ce110     Ce111    9.999   1_565     S
Ce110     Er112    10.0   .     S
Ce110     Ti178    10.0   1_565     S
Ce111     Ce109    9.999   1_545     S
Ce111     Ce110    9.999   1_545     S
Ce111     Er112    10.0   1_545     S
Er112     Ce111    10.0   1_565     S
Er112     V114    10.001   .     S
V113     V114    9.999   .     S
V113     V115    9.999   .     S
V113     V116    9.999   .     S
V114     V115    9.999   .     S
V114     V116    9.999   .     S
V115     V116    9.999   .     S
Ti117     Ce137    10.0   .     S
Ti117     Ti118    10.001   .     S
Ti117     Ti120    10.001   .     S
Ti117     Ti119    10.001   .     S
Ti117     Ti122    10.001   .     S
Ti118     Ti120    10.001   .     S
Ti118     Ti119    10.001   .     S
Ti118     Ti121    10.001   .     S
Ti119     Ti121    10.001   .     S
Ti119     Ti122    10.001   .     S
Ti120     Ce207    10.0   .     S
Ti120     Ti121    10.001   .     S
Ti120     Ti122    10.001   .     S
Ti121     Ce245    10.0   .     S
Ti121     Ti122    10.001   .     S
Ti123     Ce141    10.0   .     S
Ti123     Ti127    10.001   .     S
Ti123     Ti126    10.001   .     S
Ti123     Ti128    10.001   .     S
Ti123     Ti125    10.001   .     S
Ti124     Ti125    10.001   .     S
Ti124     Ti127    10.001   .     S
Ti124     Ti126    10.001   .     S
Ti124     Ti128    10.001   .     S
Ti125     Ti127    10.001   .     S
Ti125     Ti126    10.001   .     S
Ti126     Ce205    10.0   .     S
Ti126     Ti128    10.001   .     S
Ti127     Ti128    10.001   .     S
Ti129     Ce241    10.0   .     S
Ti129     Ti132    10.001   .     S
Ti129     Ti131    10.001   .     S
Ti129     Ti134    10.001   .     S
Ti129     Ti133    10.001   .     S
Ti130     Ce153    10.0   .     S
Ti130     Ti133    10.001   .     S
Ti130     Ti134    10.001   .     S
Ti130     Ti132    10.001   .     S
Ti130     Ti131    10.001   .     S
Ti131     Ce184    10.0   .     S
Ti131     Ti134    10.001   .     S
Ti131     Ti132    10.001   .     S
Ti132     Ti133    10.001   .     S
Ti133     Ti134    10.001   .     S
Ce135     Ti68    10.0   1_655     S
Ce135     Ce136    9.999   .     S
Ce135     Ce137    9.999   1_655     S
Ce135     Er138    10.0   .     S
Ce136     Ce137    9.999   1_655     S
Ce136     Er138    10.0   .     S
Ce136     Ti228    10.0   1_655     S
Ce137     Ce135    9.999   1_455     S
Ce137     Ce136    9.999   1_455     S
Ce137     Er138    10.0   1_455     S
Er138     Ce137    10.0   1_655     S
Er138     V150    10.001   .     S
Ce139     Ce141    9.999   1_655     S
Ce139     Ce140    9.999   .     S
Ce139     Er142    10.0   .     S
Ce139     Ti172    10.0   1_655     S
Ce140     Ce141    9.999   1_655     S
Ce140     Er142    10.0   .     S
Ce140     Ti158    10.0   1_655     S
Ce141     Ce139    9.999   1_455     S
Ce141     Ce140    9.999   1_455     S
Ce141     Er142    10.0   1_455     S
Er142     Ce141    10.0   1_655     S
Er142     V149    10.001   .     S
Ce143     Ce145    9.999   .     S
Ce143     Ce144    9.999   .     S
Ce143     Er146    10.0   .     S
Ce144     Ce145    9.999   .     S
Ce144     Er146    10.0   .     S
Ce144     Ti176    10.0   .     S
Ce145     Er146    10.0   .     S
Er146     V148    10.001   .     S
V147     V148    9.999   .     S
V147     V149    9.999   .     S
V147     V150    9.999   .     S
V147     Er154    10.001   .     S
V148     V149    9.999   .     S
V148     V150    9.999   .     S
V149     V150    9.999   .     S
Ce151     Ce153    9.999   .     S
Ce151     Ce152    9.999   .     S
Ce151     Er154    10.0   .     S
Ce151     Ti236    10.0   .     S
Ce152     Ce153    9.999   .     S
Ce152     Er154    10.0   .     S
Ce153     Er154    10.0   .     S
Ti155     Ce187    10.0   1_445     S
Ti155     Ti160    10.001   1_545     S
Ti155     Ti159    10.001   1_455     S
Ti155     Ti157    10.001   .     S
Ti155     Ti158    10.001   .     S
Ti156     Ce219    10.0   .     S
Ti156     Ti158    10.001   .     S
Ti156     Ti157    10.001   .     S
Ti156     Ti160    10.001   1_545     S
Ti156     Ti159    10.001   1_455     S
Ti157     Ce97    10.0   1_545     S
Ti157     Ti160    10.001   1_545     S
Ti157     Ti158    10.001   .     S
Ti158     Ce140    10.0   1_455     S
Ti158     Ti159    10.001   1_455     S
Ti159     Ti155    10.001   1_655     S
Ti159     Ti158    10.001   1_655     S
Ti159     Ti156    10.001   1_655     S
Ti159     Ti160    10.001   1_645     S
Ti160     Ti155    10.001   1_565     S
Ti160     Ti157    10.001   1_565     S
Ti160     Ti156    10.001   1_565     S
Ti160     Ti159    10.001   1_465     S
Ti161     Ce210    10.0   .     S
Ti161     Ti166    10.001   1_554     S
Ti161     Ti164    10.001   .     S
Ti161     Ti162    10.001   .     S
Ti161     Ti163    10.001   .     S
Ti162     Ce181    10.0   1_554     S
Ti162     Ti166    10.001   1_554     S
Ti162     Ti165    10.001   .     S
Ti162     Ti164    10.001   .     S
Ti163     Ce237    10.0   .     S
Ti163     Ti164    10.001   .     S
Ti163     Ti165    10.001   .     S
Ti163     Ti166    10.001   1_554     S
Ti164     Ti165    10.001   .     S
Ti165     Ce81    10.0   1_554     S
Ti165     Ti166    10.001   1_554     S
Ti166     Ti165    10.001   1_556     S
Ti166     Ti162    10.001   1_556     S
Ti166     Ti161    10.001   1_556     S
Ti166     Ti163    10.001   1_556     S
Ti167     Ce214    10.0   .     S
Ti167     Ti171    10.001   1_455     S
Ti167     Ti169    10.001   .     S
Ti167     Ti168    10.001   .     S
Ti167     Ti170    10.001   .     S
Ti168     Ce189    10.0   1_455     S
Ti168     Ti171    10.001   1_455     S
Ti168     Ti172    10.001   .     S
Ti168     Ti169    10.001   .     S
Ti169     Ti172    10.001   .     S
Ti169     Ti170    10.001   .     S
Ti170     Ti172    10.001   .     S
Ti170     Ti171    10.001   1_455     S
Ti171     Ti168    10.001   1_655     S
Ti171     Ti172    10.001   1_655     S
Ti171     Ti167    10.001   1_655     S
Ti171     Ti170    10.001   1_655     S
Ti172     Ce139    10.0   1_455     S
Ti172     Ti171    10.001   1_455     S
Ti173     Ce193    10.0   1_545     S
Ti173     Ti177    10.001   1_545     S
Ti173     Ti178    10.001   .     S
Ti173     Ti176    10.001   .     S
Ti173     Ti175    10.001   .     S
Ti174     Ti175    10.001   .     S
Ti174     Ti178    10.001   .     S
Ti174     Ti176    10.001   .     S
Ti174     Ti177    10.001   1_545     S
Ti175     Ce217    10.0   .     S
Ti175     Ti177    10.001   1_545     S
Ti175     Ti176    10.001   .     S
Ti176     Ti178    10.001   .     S
Ti177     Ce249    10.0   .     S
Ti177     Ti173    10.001   1_565     S
Ti177     Ti178    10.001   1_565     S
Ti177     Ti175    10.001   1_565     S
Ti177     Ti174    10.001   1_565     S
Ti178     Ce110    10.0   1_545     S
Ti178     Ti177    10.001   1_545     S
Ce179     Ti65    10.0   1_656     S
Ce179     Ce180    9.999   1_556     S
Ce179     Ce181    9.999   1_655     S
Ce179     Er182    10.0   .     S
Ce180     Ce179    9.999   1_554     S
Ce180     Ce181    9.999   1_654     S
Ce180     Er182    10.0   1_554     S
Ce180     Ti225    10.0   1_655     S
Ce181     Ti162    10.0   1_556     S
Ce181     Ce179    9.999   1_455     S
Ce181     Ce180    9.999   1_456     S
Ce181     Er182    10.0   1_455     S
Er182     Ce180    10.0   1_556     S
Er182     Ce181    10.0   1_655     S
Er182     V198    10.001   .     S
Ce183     Ce184    9.999   .     S
Ce183     Ce185    9.999   .     S
Ce183     Er186    10.0   .     S
Ce183     Ti234    10.0   .     S
Ce184     Ce185    9.999   .     S
Ce184     Er186    10.0   .     S
Ce185     Er186    10.0   .     S
Er186     V197    10.001   .     S
Ce187     Ti155    10.0   1_665     S
Ce187     Ce188    9.999   1_655     S
Ce187     Ce189    9.999   1_565     S
Ce187     Er190    10.0   .     S
Ce188     Ce187    9.999   1_455     S
Ce188     Ce189    9.999   1_465     S
Ce188     Er190    10.0   1_455     S
Ce188     Ti200    10.0   1_565     S
Ce189     Ti168    10.0   1_655     S
Ce189     Ce187    9.999   1_545     S
Ce189     Ce188    9.999   1_645     S
Ce189     Er190    10.0   1_545     S
Er190     Ce188    10.0   1_655     S
Er190     Ce189    10.0   1_565     S
Er190     V195    10.001   .     S
Ce191     Ti56    10.0   1_566     S
Ce191     Ce193    9.999   1_556     S
Ce191     Ce192    9.999   1_565     S
Ce191     Er194    10.0   .     S
Ce192     Ti1    10.0   1_556     S
Ce192     Ce191    9.999   1_545     S
Ce192     Ce193    9.999   1_546     S
Ce192     Er194    10.0   1_545     S
Ce193     Ti173    10.0   1_565     S
Ce193     Ce191    9.999   1_554     S
Ce193     Ce192    9.999   1_564     S
Ce193     Er194    10.0   1_554     S
Er194     Ce192    10.0   1_565     S
Er194     Ce193    10.0   1_556     S
Er194     V196    10.001   .     S
V195     V196    9.999   .     S
V195     V198    9.999   .     S
V195     V197    9.999   .     S
V196     V197    9.999   .     S
V196     V198    9.999   .     S
V197     V198    9.999   .     S
Ti199     Ce98    10.0   1_545     S
Ti199     Ti200    10.001   .     S
Ti199     Ti203    10.001   1_545     S
Ti199     Ti204    10.001   .     S
Ti199     Ti201    10.001   .     S
Ti200     Ce188    10.0   1_545     S
Ti200     Ti202    10.001   .     S
Ti200     Ti204    10.001   .     S
Ti200     Ti203    10.001   1_545     S
Ti201     Ti204    10.001   .     S
Ti201     Ti202    10.001   .     S
Ti201     Ti203    10.001   1_545     S
Ti202     Ce211    10.0   .     S
Ti202     Ti203    10.001   1_545     S
Ti202     Ti204    10.001   .     S
Ti203     Ti202    10.001   1_565     S
Ti203     Ti200    10.001   1_565     S
Ti203     Ti199    10.001   1_565     S
Ti203     Ti201    10.001   1_565     S
Ce205     Ce206    9.999   .     S
Ce205     Ce207    9.999   .     S
Ce205     Er208    10.0   .     S
Ce206     Ce207    9.999   .     S
Ce206     Er208    10.0   .     S
Ce207     Er208    10.0   .     S
Er208     V224    10.001   .     S
Ce209     Ce211    9.999   1_554     S
Ce209     Ce210    9.999   1_545     S
Ce209     Er212    10.0   .     S
Ce210     Ce209    9.999   1_565     S
Ce210     Ce211    9.999   1_564     S
Ce210     Er212    10.0   1_565     S
Ce211     Ce209    9.999   1_556     S
Ce211     Ce210    9.999   1_546     S
Ce211     Er212    10.0   1_556     S
Er212     Ce210    10.0   1_545     S
Er212     Ce211    10.0   1_554     S
Er212     V223    10.001   .     S
Ce213     Ce214    9.999   1_654     S
Ce213     Ce215    9.999   1_655     S
Ce213     Er216    10.0   1_655     S
Ce214     Ce213    9.999   1_456     S
Ce214     Ce215    9.999   1_556     S
Ce214     Er216    10.0   1_556     S
Ce215     Ce214    9.999   1_554     S
Ce215     Ce213    9.999   1_455     S
Ce215     Er216    10.0   .     S
Er216     Ce214    10.0   1_554     S
Er216     Ce213    10.0   1_455     S
Er216     V222    10.001   .     S
Ce217     Ce219    9.999   1_655     S
Ce217     Ce218    9.999   1_645     S
Ce217     Er220    10.0   1_655     S
Ce218     Ce219    9.999   1_565     S
Ce218     Ce217    9.999   1_465     S
Ce218     Er220    10.0   1_565     S
Ce218     Ti226    10.0   .     S
Ce219     Ce217    9.999   1_455     S
Ce219     Ce218    9.999   1_545     S
Ce219     Er220    10.0   .     S
Er220     Ce218    10.0   1_545     S
Er220     Ce217    10.0   1_455     S
Er220     V221    10.001   .     S
V221     V222    9.999   .     S
V221     V224    9.999   .     S
V221     V223    9.999   .     S
V222     V224    9.999   .     S
V222     V223    9.999   .     S
V223     V224    9.999   .     S
Ti225     Ce180    10.0   1_455     S
Ti225     Ti226    10.001   .     S
Ti225     Ti230    10.001   .     S
Ti225     Ti229    10.001   1_455     S
Ti225     Ti228    10.001   .     S
Ti226     Ti229    10.001   1_455     S
Ti226     Ti230    10.001   .     S
Ti226     Ti227    10.001   .     S
Ti227     Ti228    10.001   .     S
Ti227     Ti230    10.001   .     S
Ti227     Ti229    10.001   1_455     S
Ti228     Ce136    10.0   1_455     S
Ti228     Ti230    10.001   .     S
Ti228     Ti229    10.001   1_455     S
Ti229     Ce250    10.0   .     S
Ti229     Ti226    10.001   1_655     S
Ti229     Ti228    10.001   1_655     S
Ti229     Ti225    10.001   1_655     S
Ti229     Ti227    10.001   1_655     S
Ti231     Ti233    10.001   .     S
Ti231     Ti236    10.001   .     S
Ti231     Ti234    10.001   .     S
Ti231     Ti232    10.001   .     S
Ti232     Ce251    10.0   .     S
Ti232     Ti233    10.001   .     S
Ti232     Ti235    10.001   .     S
Ti232     Ti236    10.001   .     S
Ti233     Ti235    10.001   .     S
Ti233     Ti234    10.001   .     S
Ti234     Ti236    10.001   .     S
Ti234     Ti235    10.001   .     S
Ti235     Ti236    10.001   .     S
Ce237     Ce238    9.999   1_554     S
Ce237     Ce239    9.999   .     S
Ce237     Er240    10.0   .     S
Ce238     Ce237    9.999   1_556     S
Ce238     Ce239    9.999   1_556     S
Ce238     Er240    10.0   1_556     S
Ce239     Ce238    9.999   1_554     S
Ce239     Er240    10.0   .     S
Er240     Ce238    10.0   1_554     S
Er240     V256    10.001   .     S
Ce241     Ce242    9.999   1_556     S
Ce241     Ce243    9.999   1_556     S
Ce241     Er244    10.0   1_556     S
Ce242     Ce241    9.999   1_554     S
Ce242     Ce243    9.999   .     S
Ce242     Er244    10.0   .     S
Ce243     Ce241    9.999   1_554     S
Ce243     Er244    10.0   .     S
Er244     Ce241    10.0   1_554     S
Er244     V255    10.001   .     S
Ce245     Ce246    9.999   .     S
Ce245     Ce247    9.999   .     S
Ce245     Er248    10.0   .     S
Ce246     Ce247    9.999   .     S
Ce246     Er248    10.0   .     S
Ce247     Er248    10.0   .     S
Er248     V253    10.001   .     S
Ce249     Ce251    9.999   .     S
Ce249     Ce250    9.999   .     S
Ce249     Er252    10.0   .     S
Ce250     Ce251    9.999   .     S
Ce250     Er252    10.0   .     S
Ce251     Er252    10.0   .     S
Er252     V254    10.001   .     S
V253     V254    9.999   .     S
V253     V255    9.999   .     S
V253     V256    9.999   .     S
V254     V255    9.999   .     S
V254     V256    9.999   .     S
V255     V256    9.999   .     S
