data_sqpa
_audit_creation_date              2020-02-02
_audit_creation_method            'Pymatgen'
_symmetry_space_group_name_H-M    'P1'
_symmetry_Int_Tables_number       1
loop_
_symmetry_equiv_pos_as_xyz
  x,y,z
_cell_length_a                    33.0355
_cell_length_b                    33.0355
_cell_length_c                    56.04
_cell_angle_alpha                 90.0
_cell_angle_beta                 90.0
_cell_angle_gamma                 90.0
loop_
_atom_site_label
_atom_site_type_symbol
_atom_site_fract_x
_atom_site_fract_y
_atom_site_fract_z
Er1     Er     0.6514   0.3486   0.2154
Er2     Er     0.6514   0.6514   0.2154
Er3     Er     0.3486   0.6514   0.2154
Er4     Er     0.3486   0.3486   0.2154
Er5     Er     0.1514   0.8486   0.2846
Er6     Er     0.1514   0.1514   0.2846
Er7     Er     0.8486   0.1514   0.2846
Er8     Er     0.8486   0.8486   0.2846
V9     V     0.5   0.5   0.0892
V10     V     0.5   0.5   0.9108
V11     V     0.0   0.0   0.4108
V12     V     0.0   0.0   0.5892
Er13     Er     0.3486   0.3486   0.7846
Er14     Er     0.6514   0.3486   0.7846
Er15     Er     0.6514   0.6514   0.7846
Er16     Er     0.3486   0.6514   0.7846
Er17     Er     0.1514   0.8486   0.7154
Er18     Er     0.1514   0.1514   0.7154
Er19     Er     0.8486   0.1514   0.7154
Er20     Er     0.8486   0.8486   0.7154
loop_
_geom_bond_atom_site_label_1
_geom_bond_atom_site_label_2
_geom_bond_distance
_geom_bond_site_symmetry_2
_ccdc_geom_bond_type
Er1     V9    10.0   .     S
Er1     Er2    10.0   .     S
Er1     Er4    10.0   .     S
Er1     Er7    10.0   .     S
Er2     V9    10.0   .     S
Er2     Er3    10.0   .     S
Er2     Er8    10.0   .     S
Er3     V9    10.0   .     S
Er3     Er4    10.0   .     S
Er3     Er5    10.0   .     S
Er4     V9    10.0   .     S
Er4     Er6    10.0   .     S
Er5     V11    10.0   1_565     S
Er5     Er6    10.0   1_565     S
Er5     Er8    10.0   1_455     S
Er6     V11    10.0   .     S
Er6     Er7    10.0   1_455     S
Er6     Er5    10.0   1_545     S
Er7     V11    10.0   1_655     S
Er7     Er8    10.0   1_545     S
Er7     Er6    10.0   1_655     S
Er8     V11    10.0   1_665     S
Er8     Er7    10.0   1_565     S
Er8     Er5    10.0   1_655     S
V9     V10    10.0   1_554     S
V10     V9    10.0   1_556     S
V10     Er13    10.0   .     S
V10     Er14    10.0   .     S
V10     Er15    10.0   .     S
V10     Er16    10.0   .     S
V11     Er5    10.0   1_545     S
V11     Er7    10.0   1_455     S
V11     Er8    10.0   1_445     S
V11     V12    10.0   .     S
V12     Er17    10.0   1_545     S
V12     Er18    10.0   .     S
V12     Er19    10.0   1_455     S
V12     Er20    10.0   1_445     S
Er13     Er16    10.0   .     S
Er13     Er14    10.0   .     S
Er13     Er18    10.0   .     S
Er14     Er15    10.0   .     S
Er14     Er19    10.0   .     S
Er15     Er16    10.0   .     S
Er15     Er20    10.0   .     S
Er16     Er17    10.0   .     S
Er17     V12    10.0   1_565     S
Er17     Er18    10.0   1_565     S
Er17     Er20    10.0   1_455     S
Er18     Er19    10.0   1_455     S
Er18     Er17    10.0   1_545     S
Er19     V12    10.0   1_655     S
Er19     Er20    10.0   1_545     S
Er19     Er18    10.0   1_655     S
Er20     V12    10.0   1_665     S
Er20     Er19    10.0   1_565     S
Er20     Er17    10.0   1_655     S
