data_srst
_audit_creation_date              2020-02-02
_audit_creation_method            'Pymatgen'
_symmetry_space_group_name_H-M    'P1'
_symmetry_Int_Tables_number       1
loop_
_symmetry_equiv_pos_as_xyz
  x,y,z
_cell_length_a                    123.7091
_cell_length_b                    123.7091
_cell_length_c                    123.7091
_cell_angle_alpha                 90.0
_cell_angle_beta                 90.0
_cell_angle_gamma                 90.0
loop_
_atom_site_label
_atom_site_type_symbol
_atom_site_fract_x
_atom_site_fract_y
_atom_site_fract_z
Ti1     Ti     0.2187   0.7143   0.6846
Ti2     Ti     0.0654   0.5357   0.4687
Ti3     Ti     0.5357   0.4687   0.0654
Ti4     Ti     0.7857   0.8154   0.2813
Ti5     Ti     0.8154   0.2813   0.7857
Ti6     Ti     0.9346   0.9643   0.4687
Ti7     Ti     0.9643   0.4687   0.9346
Ti8     Ti     0.7143   0.6846   0.2187
Ti9     Ti     0.6846   0.2187   0.7143
Ti10     Ti     0.2813   0.7857   0.8154
Ti11     Ti     0.4687   0.9346   0.9643
Ti12     Ti     0.5654   0.9643   0.5313
Ti13     Ti     0.9643   0.5313   0.5654
Ti14     Ti     0.5313   0.5654   0.9643
Ti15     Ti     0.7857   0.6846   0.7813
Ti16     Ti     0.7813   0.7857   0.6846
Ti17     Ti     0.6846   0.7813   0.7857
Ti18     Ti     0.7143   0.3154   0.2813
Ti19     Ti     0.2813   0.7143   0.3154
Ti20     Ti     0.3154   0.2813   0.7143
Ti21     Ti     0.3154   0.7187   0.7857
Ti22     Ti     0.9346   0.0357   0.0313
Ti23     Ti     0.2857   0.8154   0.2187
Ti24     Ti     0.2187   0.2857   0.8154
Ti25     Ti     0.0313   0.4346   0.9643
Ti26     Ti     0.7143   0.1846   0.7813
Ti27     Ti     0.4346   0.9643   0.0313
Ti28     Ti     0.9643   0.0313   0.4346
Ti29     Ti     0.8154   0.2187   0.2857
Ti30     Ti     0.5357   0.5313   0.4346
Ti31     Ti     0.7813   0.7143   0.1846
Ti32     Ti     0.7813   0.2857   0.3154
Ti33     Ti     0.5313   0.4346   0.5357
Ti34     Ti     0.5313   0.9346   0.4643
Ti35     Ti     0.9687   0.5654   0.0357
Ti36     Ti     0.5654   0.0357   0.9687
Ti37     Ti     0.0357   0.0313   0.9346
Ti38     Ti     0.0357   0.9687   0.5654
Ti39     Ti     0.0313   0.9346   0.0357
Ti40     Ti     0.4643   0.4687   0.5654
Ti41     Ti     0.4687   0.5654   0.4643
Ti42     Ti     0.0654   0.0357   0.5313
Ti43     Ti     0.5313   0.0654   0.0357
Ti44     Ti     0.0654   0.9643   0.9687
Ti45     Ti     0.5654   0.5357   0.0313
Ti46     Ti     0.0313   0.5654   0.5357
Ti47     Ti     0.6846   0.2813   0.2143
Ti48     Ti     0.2143   0.8154   0.7813
Ti49     Ti     0.7813   0.2143   0.8154
Ti50     Ti     0.9643   0.9687   0.0654
Ti51     Ti     0.5357   0.0313   0.5654
Ti52     Ti     0.8154   0.7813   0.2143
Ti53     Ti     0.9687   0.0654   0.9643
Ti54     Ti     0.7857   0.1846   0.2187
Ti55     Ti     0.2187   0.7857   0.1846
Ti56     Ti     0.1846   0.2187   0.7857
Ti57     Ti     0.9346   0.4643   0.5313
Ti58     Ti     0.4643   0.5313   0.9346
Ti59     Ti     0.5654   0.4643   0.4687
Ti60     Ti     0.9346   0.5357   0.9687
Ti61     Ti     0.5357   0.9687   0.9346
Ti62     Ti     0.9687   0.9346   0.5357
Ti63     Ti     0.2143   0.6846   0.2813
Ti64     Ti     0.4346   0.0357   0.4687
Ti65     Ti     0.0357   0.4687   0.4346
Ti66     Ti     0.4687   0.4346   0.0357
Ti67     Ti     0.7187   0.2143   0.1846
Ti68     Ti     0.2813   0.2143   0.6846
Ti69     Ti     0.1846   0.7813   0.7143
Ti70     Ti     0.2857   0.1846   0.2813
Ti71     Ti     0.2813   0.2857   0.1846
Ti72     Ti     0.1846   0.2813   0.2857
Ti73     Ti     0.2857   0.6846   0.7187
Ti74     Ti     0.7143   0.8154   0.7187
Ti75     Ti     0.7187   0.2857   0.6846
Ti76     Ti     0.7187   0.7143   0.8154
Ti77     Ti     0.6846   0.7187   0.2857
Ti78     Ti     0.8154   0.7187   0.7143
Ti79     Ti     0.2143   0.1846   0.7187
Ti80     Ti     0.7857   0.3154   0.7187
Ti81     Ti     0.7187   0.7857   0.3154
Ti82     Ti     0.1846   0.7187   0.2143
Ti83     Ti     0.4346   0.5357   0.5313
Ti84     Ti     0.4643   0.9687   0.4346
Ti85     Ti     0.0357   0.5313   0.0654
Ti86     Ti     0.4687   0.0654   0.5357
Ti87     Ti     0.2857   0.3154   0.7813
Ti88     Ti     0.0654   0.4643   0.0313
Ti89     Ti     0.3154   0.7813   0.2857
Ti90     Ti     0.2143   0.3154   0.2187
Ti91     Ti     0.2187   0.2143   0.3154
Ti92     Ti     0.4643   0.0313   0.0654
Ti93     Ti     0.3154   0.2187   0.2143
Ti94     Ti     0.0313   0.0654   0.4643
Ti95     Ti     0.4346   0.4643   0.9687
Ti96     Ti     0.9687   0.4346   0.4643
Er97     Er     0.3535   0.5792   0.6628
Ce98     Ce     0.3886   0.5494   0.5964
S99     S     0.3794   0.5093   0.6939
V100     V     0.413   0.4788   0.6271
Er101     Er     0.3292   0.6035   0.5872
V102     V     0.2288   0.663   0.6229
S103     S     0.2593   0.6294   0.5561
Ce104     Ce     0.2994   0.6386   0.6536
Er105     Er     0.3372   0.8535   0.9208
Ce106     Ce     0.4036   0.8886   0.9506
S107     S     0.3061   0.8794   0.9907
V108     V     0.3729   0.913   0.0212
Er109     Er     0.4128   0.8292   0.8965
Ce110     Ce     0.3464   0.7994   0.8614
V111     V     0.3771   0.7288   0.837
S112     S     0.4439   0.7593   0.8706
Er113     Er     0.4208   0.6628   0.8535
Ce114     Ce     0.4506   0.5964   0.8886
S115     S     0.4907   0.6939   0.8794
V116     V     0.5212   0.6271   0.913
Er117     Er     0.3965   0.5872   0.8292
S118     S     0.3706   0.5561   0.7593
V119     V     0.337   0.6229   0.7288
Ce120     Ce     0.3614   0.6536   0.7994
Er121     Er     0.1465   0.0792   0.6628
S122     S     0.1206   0.0093   0.6939
V123     V     0.087   0.9788   0.6271
Ce124     Ce     0.1114   0.0494   0.5964
Er125     Er     0.1708   0.1035   0.5872
Ce126     Ce     0.2006   0.1386   0.6536
S127     S     0.2407   0.1294   0.5561
V128     V     0.2712   0.163   0.6229
Er129     Er     0.0792   0.1628   0.8535
S130     S     0.0093   0.1939   0.8794
V131     V     0.9788   0.1271   0.913
Ce132     Ce     0.0494   0.0964   0.8886
Er133     Er     0.1035   0.0872   0.8292
Ce134     Ce     0.1386   0.1536   0.7994
S135     S     0.1294   0.0561   0.7593
V136     V     0.163   0.1229   0.7288
Er137     Er     0.1708   0.3965   0.0872
Ce138     Ce     0.2006   0.3614   0.1536
V139     V     0.2712   0.337   0.1229
S140     S     0.2407   0.3706   0.0561
Er141     Er     0.1465   0.4208   0.1628
S142     S     0.1206   0.4907   0.1939
V143     V     0.087   0.5212   0.1271
Ce144     Ce     0.1114   0.4506   0.0964
Er145     Er     0.1628   0.3535   0.9208
S146     S     0.1939   0.3794   0.9907
V147     V     0.1271   0.413   0.0212
Ce148     Ce     0.0964   0.3886   0.9506
Er149     Er     0.0872   0.3292   0.8965
V150     V     0.1229   0.2288   0.837
S151     S     0.0561   0.2593   0.8706
Ce152     Ce     0.1536   0.2994   0.8614
Er153     Er     0.9208   0.8372   0.1465
Ce154     Ce     0.9506   0.9036   0.1114
S155     S     0.9907   0.8061   0.1206
V156     V     0.0212   0.8729   0.087
Er157     Er     0.8965   0.9128   0.1708
S158     S     0.8706   0.9439   0.2407
V159     V     0.837   0.8771   0.2712
Ce160     Ce     0.8614   0.8464   0.2006
Er161     Er     0.9128   0.6708   0.1035
S162     S     0.9439   0.7407   0.1294
V163     V     0.8771   0.7712   0.163
Ce164     Ce     0.8464   0.7006   0.1386
Er165     Er     0.8372   0.6465   0.0792
S166     S     0.8061   0.6206   0.0093
V167     V     0.8729   0.587   0.9788
Ce168     Ce     0.9036   0.6114   0.0494
Er169     Er     0.6708   0.6035   0.0872
Ce170     Ce     0.7006   0.6386   0.1536
V171     V     0.7712   0.663   0.1229
S172     S     0.7407   0.6294   0.0561
Er173     Er     0.6465   0.5792   0.1628
Ce174     Ce     0.6114   0.5494   0.0964
V175     V     0.587   0.4788   0.1271
S176     S     0.6206   0.5093   0.1939
Er177     Er     0.5792   0.3372   0.1465
Ce178     Ce     0.5494   0.4036   0.1114
V179     V     0.4788   0.3729   0.087
S180     S     0.5093   0.3061   0.1206
Er181     Er     0.6035   0.4128   0.1708
V182     V     0.663   0.3771   0.2712
S183     S     0.6294   0.4439   0.2407
Ce184     Ce     0.6386   0.3464   0.2006
Er185     Er     0.6465   0.4208   0.3372
Ce186     Ce     0.6114   0.4506   0.4036
V187     V     0.587   0.5212   0.3729
S188     S     0.6206   0.4907   0.3061
Er189     Er     0.6708   0.3965   0.4128
V190     V     0.7712   0.337   0.3771
S191     S     0.7407   0.3706   0.4439
Ce192     Ce     0.7006   0.3614   0.3464
Er193     Er     0.9128   0.3292   0.3965
S194     S     0.9439   0.2593   0.3706
V195     V     0.8771   0.2288   0.337
Ce196     Ce     0.8464   0.2994   0.3614
Er197     Er     0.8372   0.3535   0.4208
S198     S     0.8061   0.3794   0.4907
V199     V     0.8729   0.413   0.5212
Ce200     Ce     0.9036   0.3886   0.4506
Er201     Er     0.4128   0.3292   0.1035
Ce202     Ce     0.3464   0.2994   0.1386
V203     V     0.3771   0.2288   0.163
S204     S     0.4439   0.2593   0.1294
Er205     Er     0.3372   0.3535   0.0792
V206     V     0.3729   0.413   0.9788
S207     S     0.3061   0.3794   0.0093
Ce208     Ce     0.4036   0.3886   0.0494
Er209     Er     0.6628   0.3535   0.5792
Ce210     Ce     0.5964   0.3886   0.5494
V211     V     0.6271   0.413   0.4788
S212     S     0.6939   0.3794   0.5093
Er213     Er     0.5872   0.3292   0.6035
V214     V     0.6229   0.2288   0.663
S215     S     0.5561   0.2593   0.6294
Ce216     Ce     0.6536   0.2994   0.6386
Er217     Er     0.8535   0.4208   0.6628
Ce218     Ce     0.8886   0.4506   0.5964
S219     S     0.8794   0.4907   0.6939
V220     V     0.913   0.5212   0.6271
Er221     Er     0.8292   0.3965   0.5872
S222     S     0.7593   0.3706   0.5561
V223     V     0.7288   0.337   0.6229
Ce224     Ce     0.7994   0.3614   0.6536
Er225     Er     0.9208   0.3372   0.8535
Ce226     Ce     0.9506   0.4036   0.8886
V227     V     0.0212   0.3729   0.913
S228     S     0.9907   0.3061   0.8794
Er229     Er     0.8965   0.4128   0.8292
Ce230     Ce     0.8614   0.3464   0.7994
S231     S     0.8706   0.4439   0.7593
V232     V     0.837   0.3771   0.7288
Er233     Er     0.5792   0.6628   0.3535
Ce234     Ce     0.5494   0.5964   0.3886
S235     S     0.5093   0.6939   0.3794
V236     V     0.4788   0.6271   0.413
Er237     Er     0.6035   0.5872   0.3292
V238     V     0.663   0.6229   0.2288
S239     S     0.6294   0.5561   0.2593
Ce240     Ce     0.6386   0.6536   0.2994
Er241     Er     0.6628   0.8535   0.4208
Ce242     Ce     0.5964   0.8886   0.4506
S243     S     0.6939   0.8794   0.4907
V244     V     0.6271   0.913   0.5212
Er245     Er     0.5872   0.8292   0.3965
S246     S     0.5561   0.7593   0.3706
V247     V     0.6229   0.7288   0.337
Ce248     Ce     0.6536   0.7994   0.3614
Er249     Er     0.8535   0.9208   0.3372
Ce250     Ce     0.8886   0.9506   0.4036
S251     S     0.8794   0.9907   0.3061
V252     V     0.913   0.0212   0.3729
Er253     Er     0.8292   0.8965   0.4128
Ce254     Ce     0.7994   0.8614   0.3464
S255     S     0.7593   0.8706   0.4439
V256     V     0.7288   0.837   0.3771
Er257     Er     0.1465   0.9208   0.8372
Ce258     Ce     0.1114   0.9506   0.9036
S259     S     0.1206   0.9907   0.8061
V260     V     0.087   0.0212   0.8729
Er261     Er     0.1708   0.8965   0.9128
S262     S     0.2407   0.8706   0.9439
V263     V     0.2712   0.837   0.8771
Ce264     Ce     0.2006   0.8614   0.8464
Er265     Er     0.1035   0.9128   0.6708
S266     S     0.1294   0.9439   0.7407
V267     V     0.163   0.8771   0.7712
Ce268     Ce     0.1386   0.8464   0.7006
Er269     Er     0.0792   0.8372   0.6465
S270     S     0.0093   0.8061   0.6206
V271     V     0.9788   0.8729   0.587
Ce272     Ce     0.0494   0.9036   0.6114
Er273     Er     0.0872   0.6708   0.6035
Ce274     Ce     0.1536   0.7006   0.6386
V275     V     0.1229   0.7712   0.663
S276     S     0.0561   0.7407   0.6294
Er277     Er     0.1628   0.6465   0.5792
Ce278     Ce     0.0964   0.6114   0.5494
V279     V     0.1271   0.587   0.4788
S280     S     0.1939   0.6206   0.5093
Er281     Er     0.8372   0.8535   0.5792
Ce282     Ce     0.9036   0.8886   0.5494
S283     S     0.8061   0.8794   0.5093
V284     V     0.8729   0.913   0.4788
Er285     Er     0.9128   0.8292   0.6035
S286     S     0.9439   0.7593   0.6294
V287     V     0.8771   0.7288   0.663
Ce288     Ce     0.8464   0.7994   0.6386
Er289     Er     0.9208   0.6628   0.6465
S290     S     0.9907   0.6939   0.6206
V291     V     0.0212   0.6271   0.587
Ce292     Ce     0.9506   0.5964   0.6114
Er293     Er     0.8965   0.5872   0.6708
V294     V     0.837   0.6229   0.7712
S295     S     0.8706   0.5561   0.7407
Ce296     Ce     0.8614   0.6536   0.7006
Er297     Er     0.8535   0.5792   0.8372
Ce298     Ce     0.8886   0.5494   0.9036
S299     S     0.8794   0.5093   0.8061
V300     V     0.913   0.4788   0.8729
Er301     Er     0.8292   0.6035   0.9128
S302     S     0.7593   0.6294   0.9439
V303     V     0.7288   0.663   0.8771
Ce304     Ce     0.7994   0.6386   0.8464
Er305     Er     0.6628   0.6465   0.9208
S306     S     0.6939   0.6206   0.9907
V307     V     0.6271   0.587   0.0212
Ce308     Ce     0.5964   0.6114   0.9506
Er309     Er     0.5872   0.6708   0.8965
V310     V     0.6229   0.7712   0.837
S311     S     0.5561   0.7407   0.8706
Ce312     Ce     0.6536   0.7006   0.8614
Er313     Er     0.6465   0.9208   0.6628
V314     V     0.587   0.0212   0.6271
S315     S     0.6206   0.9907   0.6939
Ce316     Ce     0.6114   0.9506   0.5964
Er317     Er     0.6708   0.8965   0.5872
V318     V     0.7712   0.837   0.6229
S319     S     0.7407   0.8706   0.5561
Ce320     Ce     0.7006   0.8614   0.6536
Er321     Er     0.5792   0.8372   0.8535
Ce322     Ce     0.5494   0.9036   0.8886
S323     S     0.5093   0.8061   0.8794
V324     V     0.4788   0.8729   0.913
Er325     Er     0.6035   0.9128   0.8292
S326     S     0.6294   0.9439   0.7593
V327     V     0.663   0.8771   0.7288
Ce328     Ce     0.6386   0.8464   0.7994
Er329     Er     0.3965   0.4128   0.6708
V330     V     0.337   0.3771   0.7712
S331     S     0.3706   0.4439   0.7407
Ce332     Ce     0.3614   0.3464   0.7006
Er333     Er     0.4208   0.3372   0.6465
Ce334     Ce     0.4506   0.4036   0.6114
V335     V     0.5212   0.3729   0.587
S336     S     0.4907   0.3061   0.6206
Er337     Er     0.3535   0.4208   0.8372
S338     S     0.3794   0.4907   0.8061
V339     V     0.413   0.5212   0.8729
Ce340     Ce     0.3886   0.4506   0.9036
Er341     Er     0.3292   0.3965   0.9128
S342     S     0.2593   0.3706   0.9439
V343     V     0.2288   0.337   0.8771
Ce344     Ce     0.2994   0.3614   0.8464
Er345     Er     0.3965   0.0872   0.1708
Ce346     Ce     0.3614   0.1536   0.2006
V347     V     0.337   0.1229   0.2712
S348     S     0.3706   0.0561   0.2407
Er349     Er     0.4208   0.1628   0.1465
Ce350     Ce     0.4506   0.0964   0.1114
V351     V     0.5212   0.1271   0.087
S352     S     0.4907   0.1939   0.1206
Er353     Er     0.0792   0.6628   0.1465
S354     S     0.0093   0.6939   0.1206
V355     V     0.9788   0.6271   0.087
Ce356     Ce     0.0494   0.5964   0.1114
Er357     Er     0.1035   0.5872   0.1708
Ce358     Ce     0.1386   0.6536   0.2006
S359     S     0.1294   0.5561   0.2407
V360     V     0.163   0.6229   0.2712
Er361     Er     0.1628   0.8535   0.0792
S362     S     0.1939   0.8794   0.0093
V363     V     0.1271   0.913   0.9788
Ce364     Ce     0.0964   0.8886   0.0494
Er365     Er     0.0872   0.8292   0.1035
Ce366     Ce     0.1536   0.7994   0.1386
S367     S     0.0561   0.7593   0.1294
V368     V     0.1229   0.7288   0.163
Er369     Er     0.3535   0.9208   0.1628
S370     S     0.3794   0.9907   0.1939
V371     V     0.413   0.0212   0.1271
Ce372     Ce     0.3886   0.9506   0.0964
Er373     Er     0.3292   0.8965   0.0872
Ce374     Ce     0.2994   0.8614   0.1536
V375     V     0.2288   0.837   0.1229
S376     S     0.2593   0.8706   0.0561
Er377     Er     0.8372   0.1465   0.9208
Ce378     Ce     0.9036   0.1114   0.9506
V379     V     0.8729   0.087   0.0212
S380     S     0.8061   0.1206   0.9907
Er381     Er     0.9128   0.1708   0.8965
S382     S     0.9439   0.2407   0.8706
V383     V     0.8771   0.2712   0.837
Ce384     Ce     0.8464   0.2006   0.8614
Er385     Er     0.6708   0.1035   0.9128
S386     S     0.7407   0.1294   0.9439
V387     V     0.7712   0.163   0.8771
Ce388     Ce     0.7006   0.1386   0.8464
Er389     Er     0.6465   0.0792   0.8372
S390     S     0.6206   0.0093   0.8061
V391     V     0.587   0.9788   0.8729
Ce392     Ce     0.6114   0.0494   0.9036
Er393     Er     0.5792   0.1628   0.6465
Ce394     Ce     0.5494   0.0964   0.6114
S395     S     0.5093   0.1939   0.6206
V396     V     0.4788   0.1271   0.587
Er397     Er     0.6035   0.0872   0.6708
V398     V     0.663   0.1229   0.7712
S399     S     0.6294   0.0561   0.7407
Ce400     Ce     0.6386   0.1536   0.7006
Er401     Er     0.3372   0.1465   0.5792
Ce402     Ce     0.4036   0.1114   0.5494
V403     V     0.3729   0.087   0.4788
S404     S     0.3061   0.1206   0.5093
Er405     Er     0.4128   0.1708   0.6035
Ce406     Ce     0.3464   0.2006   0.6386
V407     V     0.3771   0.2712   0.663
S408     S     0.4439   0.2407   0.6294
Er409     Er     0.3292   0.1035   0.4128
Ce410     Ce     0.2994   0.1386   0.3464
V411     V     0.2288   0.163   0.3771
S412     S     0.2593   0.1294   0.4439
Er413     Er     0.3535   0.0792   0.3372
V414     V     0.413   0.9788   0.3729
S415     S     0.3794   0.0093   0.3061
Ce416     Ce     0.3886   0.0494   0.4036
Er417     Er     0.6628   0.1465   0.0792
S418     S     0.6939   0.1206   0.0093
V419     V     0.6271   0.087   0.9788
Ce420     Ce     0.5964   0.1114   0.0494
Er421     Er     0.5872   0.1708   0.1035
Ce422     Ce     0.6536   0.2006   0.1386
S423     S     0.5561   0.2407   0.1294
V424     V     0.6229   0.2712   0.163
Er425     Er     0.8292   0.1035   0.0872
Ce426     Ce     0.7994   0.1386   0.1536
S427     S     0.7593   0.1294   0.0561
V428     V     0.7288   0.163   0.1229
Er429     Er     0.8535   0.0792   0.1628
S430     S     0.8794   0.0093   0.1939
V431     V     0.913   0.9788   0.1271
Ce432     Ce     0.8886   0.0494   0.0964
Er433     Er     0.0872   0.1708   0.3965
Ce434     Ce     0.1536   0.2006   0.3614
V435     V     0.1229   0.2712   0.337
S436     S     0.0561   0.2407   0.3706
Er437     Er     0.1628   0.1465   0.4208
Ce438     Ce     0.0964   0.1114   0.4506
V439     V     0.1271   0.087   0.5212
S440     S     0.1939   0.1206   0.4907
Er441     Er     0.9208   0.1628   0.3535
V442     V     0.0212   0.1271   0.413
S443     S     0.9907   0.1939   0.3794
Ce444     Ce     0.9506   0.0964   0.3886
Er445     Er     0.8965   0.0872   0.3292
Ce446     Ce     0.8614   0.1536   0.2994
V447     V     0.837   0.1229   0.2288
S448     S     0.8706   0.0561   0.2593
Er449     Er     0.4128   0.6708   0.3965
V450     V     0.3771   0.7712   0.337
S451     S     0.4439   0.7407   0.3706
Ce452     Ce     0.3464   0.7006   0.3614
Er453     Er     0.3372   0.6465   0.4208
Ce454     Ce     0.4036   0.6114   0.4506
S455     S     0.3061   0.6206   0.4907
V456     V     0.3729   0.587   0.5212
Er457     Er     0.4208   0.8372   0.3535
Ce458     Ce     0.4506   0.9036   0.3886
V459     V     0.5212   0.8729   0.413
S460     S     0.4907   0.8061   0.3794
Er461     Er     0.3965   0.9128   0.3292
S462     S     0.3706   0.9439   0.2593
V463     V     0.337   0.8771   0.2288
Ce464     Ce     0.3614   0.8464   0.2994
Er465     Er     0.1465   0.5792   0.3372
Ce466     Ce     0.1114   0.5494   0.4036
V467     V     0.087   0.4788   0.3729
S468     S     0.1206   0.5093   0.3061
Er469     Er     0.1708   0.6035   0.4128
V470     V     0.2712   0.663   0.3771
S471     S     0.2407   0.6294   0.4439
Ce472     Ce     0.2006   0.6386   0.3464
Er473     Er     0.1035   0.4128   0.3292
Ce474     Ce     0.1386   0.3464   0.2994
V475     V     0.163   0.3771   0.2288
S476     S     0.1294   0.4439   0.2593
Er477     Er     0.0792   0.3372   0.3535
V478     V     0.9788   0.3729   0.413
S479     S     0.0093   0.3061   0.3794
Ce480     Ce     0.0494   0.4036   0.3886
loop_
_geom_bond_atom_site_label_1
_geom_bond_atom_site_label_2
_geom_bond_distance
_geom_bond_site_symmetry_2
_ccdc_geom_bond_type
Ti1     Ti69    10.0   .     S
Ti1     Ce274    10.0   .     S
Ti1     V102    10.001   .     S
Ti1     Ti73    10.0   .     S
Ti2     Ti65    10.0   .     S
Ti2     Ce466    10.0   .     S
Ti2     V279    10.001   .     S
Ti2     Ti46    10.0   .     S
Ti3     Ti66    10.0   .     S
Ti3     Ce178    10.0   .     S
Ti3     V175    10.001   .     S
Ti3     Ti45    10.0   .     S
Ti4     Ti81    10.0   .     S
Ti4     Ce254    10.0   .     S
Ti4     V159    10.001   .     S
Ti4     Ti52    10.0   .     S
Ti5     Ti80    10.0   .     S
Ti5     Ce230    10.0   .     S
Ti5     V383    10.001   .     S
Ti5     Ti49    10.0   .     S
Ti6     Ti28    10.0   1_565     S
Ti6     Ce250    10.0   .     S
Ti6     V284    10.001   .     S
Ti6     Ti62    10.0   .     S
Ti7     Ti25    10.0   1_655     S
Ti7     Ce226    10.0   .     S
Ti7     V300    10.001   .     S
Ti7     Ti60    10.0   .     S
Ti8     Ti31    10.0   .     S
Ti8     Ce170    10.0   .     S
Ti8     V238    10.001   .     S
Ti8     Ti77    10.0   .     S
Ti9     Ti26    10.0   .     S
Ti9     Ce400    10.0   .     S
Ti9     V214    10.001   .     S
Ti9     Ti75    10.0   .     S
Ti10     Ti21    10.0   .     S
Ti10     Ce110    10.0   .     S
Ti10     V263    10.001   .     S
Ti10     Ti48    10.0   .     S
Ti11     Ti27    10.0   1_556     S
Ti11     Ce106    10.0   .     S
Ti11     V324    10.001   .     S
Ti11     Ti61    10.0   .     S
Ti12     Ti51    10.0   1_565     S
Ti12     Ce316    10.0   .     S
Ti12     V244    10.001   .     S
Ti12     Ti34    10.0   .     S
Ti13     Ti46    10.0   1_655     S
Ti13     Ce292    10.0   .     S
Ti13     V220    10.001   .     S
Ti13     Ti57    10.0   .     S
Ti14     Ti45    10.0   1_556     S
Ti14     Ce308    10.0   .     S
Ti14     V116    10.001   .     S
Ti14     Ti58    10.0   .     S
Ti15     Ti76    10.0   .     S
Ti15     Ce304    10.0   .     S
Ti15     V294    10.001   .     S
Ti15     Ti78    10.0   .     S
Ti16     Ti78    10.0   .     S
Ti16     Ce288    10.0   .     S
Ti16     V318    10.001   .     S
Ti16     Ti74    10.0   .     S
Ti17     Ti74    10.0   .     S
Ti17     Ce328    10.0   .     S
Ti17     V310    10.001   .     S
Ti17     Ti76    10.0   .     S
Ti18     Ti32    10.0   .     S
Ti18     Ce192    10.0   .     S
Ti18     V182    10.001   .     S
Ti18     Ti47    10.0   .     S
Ti19     Ti89    10.0   .     S
Ti19     Ce452    10.0   .     S
Ti19     V470    10.001   .     S
Ti19     Ti63    10.0   .     S
Ti20     Ti87    10.0   .     S
Ti20     Ce332    10.0   .     S
Ti20     V407    10.001   .     S
Ti20     Ti68    10.0   .     S
Ti21     Ti73    10.0   .     S
Ti21     Ce120    10.0   .     S
Ti21     V111    10.001   .     S
Ti22     Ti50    10.0   1_545     S
Ti22     Ce432    10.0   .     S
Ti22     V379    10.001   .     S
Ti22     Ti53    10.0   1_554     S
Ti23     Ti55    10.0   .     S
Ti23     Ce374    10.0   .     S
Ti23     V463    10.001   .     S
Ti23     Ti89    10.0   .     S
Ti24     Ti56    10.0   .     S
Ti24     Ce152    10.0   .     S
Ti24     V343    10.001   .     S
Ti24     Ti87    10.0   .     S
Ti25     Ti7    10.0   1_455     S
Ti25     Ti88    10.0   1_556     S
Ti25     Ce148    10.0   .     S
Ti25     V227    10.001   .     S
Ti26     Ti49    10.0   .     S
Ti26     Ce388    10.0   .     S
Ti26     V398    10.001   .     S
Ti27     Ti11    10.0   1_554     S
Ti27     Ti92    10.0   1_565     S
Ti27     Ce372    10.0   .     S
Ti27     V108    10.001   .     S
Ti28     Ti6    10.0   1_545     S
Ti28     Ti94    10.0   1_655     S
Ti28     Ce444    10.0   .     S
Ti28     V252    10.001   .     S
Ti29     Ti54    10.0   .     S
Ti29     Ce446    10.0   .     S
Ti29     V195    10.001   .     S
Ti29     Ti32    10.0   .     S
Ti30     Ti41    10.0   .     S
Ti30     Ce234    10.0   .     S
Ti30     V187    10.001   .     S
Ti30     Ti59    10.0   .     S
Ti31     Ti52    10.0   .     S
Ti31     Ce164    10.0   .     S
Ti31     V171    10.001   .     S
Ti32     Ce196    10.0   .     S
Ti32     V190    10.001   .     S
Ti33     Ti59    10.0   .     S
Ti33     Ce210    10.0   .     S
Ti33     V335    10.001   .     S
Ti33     Ti40    10.0   .     S
Ti34     Ce242    10.0   .     S
Ti34     V459    10.001   .     S
Ti34     Ti84    10.0   .     S
Ti35     Ti60    10.0   1_554     S
Ti35     Ce168    10.0   .     S
Ti35     V355    10.001   .     S
Ti35     Ti85    10.0   1_655     S
Ti36     Ti61    10.0   1_545     S
Ti36     Ce392    10.0   .     S
Ti36     V419    10.001   .     S
Ti36     Ti43    10.0   1_556     S
Ti37     Ti53    10.0   1_455     S
Ti37     Ce132    10.0   .     S
Ti37     V260    10.001   .     S
Ti37     Ti44    10.0   1_545     S
Ti38     Ti62    10.0   1_455     S
Ti38     Ce272    10.0   .     S
Ti38     V123    10.001   .     S
Ti38     Ti42    10.0   1_565     S
Ti39     Ti44    10.0   1_554     S
Ti39     Ce364    10.0   .     S
Ti39     V156    10.001   .     S
Ti39     Ti50    10.0   1_455     S
Ti40     Ce334    10.0   .     S
Ti40     V100    10.001   .     S
Ti40     Ti83    10.0   .     S
Ti41     Ti83    10.0   .     S
Ti41     Ce454    10.0   .     S
Ti41     V236    10.001   .     S
Ti42     Ti38    10.0   1_545     S
Ti42     Ce124    10.0   .     S
Ti42     V439    10.001   .     S
Ti42     Ti94    10.0   .     S
Ti43     Ti36    10.0   1_554     S
Ti43     Ce420    10.0   .     S
Ti43     V351    10.001   .     S
Ti43     Ti92    10.0   .     S
Ti44     Ti39    10.0   1_556     S
Ti44     Ti37    10.0   1_565     S
Ti44     Ce258    10.0   .     S
Ti44     V363    10.001   .     S
Ti45     Ti14    10.0   1_554     S
Ti45     Ce174    10.0   .     S
Ti45     V307    10.001   .     S
Ti46     Ti13    10.0   1_455     S
Ti46     Ce278    10.0   .     S
Ti46     V291    10.001   .     S
Ti47     Ce184    10.0   .     S
Ti47     V424    10.001   .     S
Ti47     Ti67    10.0   .     S
Ti48     Ce264    10.0   .     S
Ti48     V267    10.001   .     S
Ti48     Ti69    10.0   .     S
Ti49     Ce384    10.0   .     S
Ti49     V387    10.001   .     S
Ti50     Ti22    10.0   1_565     S
Ti50     Ti39    10.0   1_655     S
Ti50     Ce154    10.0   .     S
Ti50     V431    10.001   .     S
Ti51     Ti12    10.0   1_545     S
Ti51     Ti86    10.0   .     S
Ti51     Ce394    10.0   .     S
Ti51     V314    10.001   .     S
Ti52     Ce160    10.0   .     S
Ti52     V163    10.001   .     S
Ti53     Ti37    10.0   1_655     S
Ti53     Ti22    10.0   1_556     S
Ti53     Ce378    10.0   .     S
Ti53     V131    10.001   .     S
Ti54     Ti67    10.0   .     S
Ti54     Ce426    10.0   .     S
Ti54     V447    10.001   .     S
Ti55     Ti82    10.0   .     S
Ti55     Ce366    10.0   .     S
Ti55     V375    10.001   .     S
Ti56     Ti79    10.0   .     S
Ti56     Ce134    10.0   .     S
Ti56     V150    10.001   .     S
Ti57     Ce218    10.0   .     S
Ti57     V199    10.001   .     S
Ti57     Ti96    10.0   .     S
Ti58     Ce114    10.0   .     S
Ti58     V339    10.001   .     S
Ti58     Ti95    10.0   .     S
Ti59     Ce186    10.0   .     S
Ti59     V211    10.001   .     S
Ti60     Ti35    10.0   1_556     S
Ti60     Ce298    10.0   .     S
Ti60     V167    10.001   .     S
Ti61     Ti36    10.0   1_565     S
Ti61     Ce322    10.0   .     S
Ti61     V391    10.001   .     S
Ti62     Ti38    10.0   1_655     S
Ti62     Ce282    10.0   .     S
Ti62     V271    10.001   .     S
Ti63     Ce472    10.0   .     S
Ti63     V360    10.001   .     S
Ti63     Ti82    10.0   .     S
Ti64     Ti84    10.0   1_545     S
Ti64     Ce416    10.0   .     S
Ti64     V403    10.001   .     S
Ti64     Ti86    10.0   .     S
Ti65     Ti96    10.0   1_455     S
Ti65     Ce480    10.0   .     S
Ti65     V467    10.001   .     S
Ti66     Ti95    10.0   1_554     S
Ti66     Ce208    10.0   .     S
Ti66     V179    10.001   .     S
Ti67     Ce422    10.0   .     S
Ti67     V428    10.001   .     S
Ti68     Ce406    10.0   .     S
Ti68     V128    10.001   .     S
Ti68     Ti79    10.0   .     S
Ti69     Ce268    10.0   .     S
Ti69     V275    10.001   .     S
Ti70     Ti91    10.0   .     S
Ti70     Ce410    10.0   .     S
Ti70     V347    10.001   .     S
Ti70     Ti93    10.0   .     S
Ti71     Ti93    10.0   .     S
Ti71     Ce202    10.0   .     S
Ti71     V139    10.001   .     S
Ti71     Ti90    10.0   .     S
Ti72     Ti90    10.0   .     S
Ti72     Ce474    10.0   .     S
Ti72     V435    10.001   .     S
Ti72     Ti91    10.0   .     S
Ti73     Ce104    10.0   .     S
Ti73     V119    10.001   .     S
Ti74     Ce320    10.0   .     S
Ti74     V327    10.001   .     S
Ti75     Ce216    10.0   .     S
Ti75     V223    10.001   .     S
Ti75     Ti80    10.0   .     S
Ti76     Ce312    10.0   .     S
Ti76     V303    10.001   .     S
Ti77     Ce240    10.0   .     S
Ti77     V247    10.001   .     S
Ti77     Ti81    10.0   .     S
Ti78     Ce296    10.0   .     S
Ti78     V287    10.001   .     S
Ti79     Ce126    10.0   .     S
Ti79     V136    10.001   .     S
Ti80     Ce224    10.0   .     S
Ti80     V232    10.001   .     S
Ti81     Ce248    10.0   .     S
Ti81     V256    10.001   .     S
Ti82     Ce358    10.0   .     S
Ti82     V368    10.001   .     S
Ti83     Ce98    10.0   .     S
Ti83     V456    10.001   .     S
Ti84     Ti64    10.0   1_565     S
Ti84     Ce458    10.0   .     S
Ti84     V414    10.001   .     S
Ti85     Ti35    10.0   1_455     S
Ti85     Ce356    10.0   .     S
Ti85     V143    10.001   .     S
Ti85     Ti88    10.0   .     S
Ti86     Ce402    10.0   .     S
Ti86     V396    10.001   .     S
Ti87     Ce344    10.0   .     S
Ti87     V330    10.001   .     S
Ti88     Ti25    10.0   1_554     S
Ti88     Ce144    10.0   .     S
Ti88     V147    10.001   .     S
Ti89     Ce464    10.0   .     S
Ti89     V450    10.001   .     S
Ti90     Ce138    10.0   .     S
Ti90     V475    10.001   .     S
Ti91     Ce434    10.0   .     S
Ti91     V411    10.001   .     S
Ti92     Ti27    10.0   1_545     S
Ti92     Ce350    10.0   .     S
Ti92     V371    10.001   .     S
Ti93     Ce346    10.0   .     S
Ti93     V203    10.001   .     S
Ti94     Ti28    10.0   1_455     S
Ti94     Ce438    10.0   .     S
Ti94     V442    10.001   .     S
Ti95     Ti66    10.0   1_556     S
Ti95     Ce340    10.0   .     S
Ti95     V206    10.001   .     S
Ti96     Ti65    10.0   1_655     S
Ti96     Ce200    10.0   .     S
Ti96     V478    10.001   .     S
Er97     V119    10.0   .     S
Er97     Ce98    10.0   .     S
Er97     S99    10.0   .     S
Er97     Ce104    10.0   .     S
Ce98     Er101    10.0   .     S
Ce98     V100    9.999   .     S
S99     V100    9.999   .     S
S99     S118    10.001   .     S
S99     S331    10.001   .     S
V100     Er329    10.0   .     S
Er101     V456    10.0   .     S
Er101     Ce104    10.0   .     S
Er101     S103    10.0   .     S
V102     S103    9.999   .     S
V102     Ce104    9.999   .     S
V102     Er277    10.0   .     S
S103     S455    10.001   .     S
S103     S280    10.001   .     S
Er105     V263    10.0   .     S
Er105     Ce106    10.0   .     S
Er105     S107    10.0   .     S
Er105     Ce110    10.0   .     S
Ce106     Er109    10.0   .     S
Ce106     V108    9.999   1_556     S
S107     V108    9.999   1_556     S
S107     S262    10.001   .     S
S107     S376    10.001   1_556     S
V108     S107    9.999   1_554     S
V108     Ce106    9.999   1_554     S
V108     Er373    10.0   .     S
Er109     V324    10.0   .     S
Er109     Ce110    10.0   .     S
Er109     S112    10.0   .     S
Ce110     V111    9.999   .     S
V111     S112    9.999   .     S
V111     Er113    10.0   .     S
S112     S115    10.001   .     S
S112     S323    10.001   .     S
Er113     Ce114    10.0   .     S
Er113     S115    10.0   .     S
Er113     Ce120    10.0   .     S
Ce114     Er117    10.0   .     S
Ce114     V116    9.999   .     S
S115     V116    9.999   .     S
S115     S311    10.001   .     S
V116     Er309    10.0   .     S
Er117     V339    10.0   .     S
Er117     Ce120    10.0   .     S
Er117     S118    10.0   .     S
S118     V119    9.999   .     S
S118     S338    10.001   .     S
V119     Ce120    9.999   .     S
Er121     V136    10.0   .     S
Er121     Ce124    10.0   .     S
Er121     S122    10.0   .     S
Er121     Ce126    10.0   .     S
S122     V123    9.999   1_545     S
S122     S135    10.001   .     S
S122     S266    10.001   1_545     S
V123     S122    9.999   1_565     S
V123     Ce124    9.999   1_565     S
V123     Er265    10.0   .     S
Ce124     Er125    10.0   .     S
Ce124     V123    9.999   1_545     S
Er125     V439    10.0   .     S
Er125     Ce126    10.0   .     S
Er125     S127    10.0   .     S
Ce126     V128    9.999   .     S
S127     V128    9.999   .     S
S127     S440    10.001   .     S
S127     S404    10.001   .     S
V128     Er401    10.0   .     S
Er129     V150    10.0   .     S
Er129     Ce132    10.0   .     S
Er129     S130    10.0   .     S
Er129     Ce134    10.0   .     S
S130     V131    9.999   1_455     S
S130     S151    10.001   .     S
S130     S382    10.001   1_455     S
V131     S130    9.999   1_655     S
V131     Ce132    9.999   1_655     S
V131     Er381    10.0   .     S
Ce132     Er133    10.0   .     S
Ce132     V131    9.999   1_455     S
Er133     V260    10.0   .     S
Er133     Ce134    10.0   .     S
Er133     S135    10.0   .     S
Ce134     V136    9.999   .     S
S135     V136    9.999   .     S
S135     S259    10.001   1_545     S
Er137     V147    10.0   .     S
Er137     Ce138    10.0   .     S
Er137     S140    10.0   .     S
Er137     Ce144    10.0   .     S
Ce138     Er141    10.0   .     S
Ce138     V139    9.999   .     S
V139     S140    9.999   .     S
V139     Er205    10.0   .     S
S140     S146    10.001   1_554     S
S140     S207    10.001   .     S
Er141     V475    10.0   .     S
Er141     Ce144    10.0   .     S
Er141     S142    10.0   .     S
S142     V143    9.999   .     S
S142     S476    10.001   .     S
S142     S359    10.001   .     S
V143     Ce144    9.999   .     S
V143     Er357    10.0   .     S
Er145     V343    10.0   .     S
Er145     Ce148    10.0   .     S
Er145     S146    10.0   .     S
Er145     Ce152    10.0   .     S
S146     V147    9.999   1_556     S
S146     S140    10.001   1_556     S
S146     S342    10.001   .     S
V147     S146    9.999   1_554     S
V147     Ce148    9.999   1_554     S
Ce148     Er149    10.0   .     S
Ce148     V147    9.999   1_556     S
Er149     V227    10.0   .     S
Er149     Ce152    10.0   .     S
Er149     S151    10.0   .     S
V150     S151    9.999   .     S
V150     Ce152    9.999   .     S
S151     S228    10.001   1_455     S
Er153     V163    10.0   .     S
Er153     Ce154    10.0   .     S
Er153     S155    10.0   .     S
Er153     Ce160    10.0   .     S
Ce154     Er157    10.0   .     S
Ce154     V156    9.999   1_655     S
S155     V156    9.999   1_655     S
S155     S162    10.001   .     S
S155     S367    10.001   1_655     S
V156     S155    9.999   1_455     S
V156     Ce154    9.999   1_455     S
V156     Er365    10.0   .     S
Er157     V431    10.0   .     S
Er157     Ce160    10.0   .     S
Er157     S158    10.0   .     S
S158     V159    9.999   .     S
S158     S430    10.001   1_565     S
S158     S251    10.001   .     S
V159     Ce160    9.999   .     S
V159     Er249    10.0   .     S
Er161     V355    10.0   .     S
Er161     Ce164    10.0   .     S
Er161     S162    10.0   .     S
Er161     Ce168    10.0   .     S
S162     V163    9.999   .     S
S162     S354    10.001   1_655     S
V163     Ce164    9.999   .     S
Ce164     Er165    10.0   .     S
Er165     V171    10.0   .     S
Er165     Ce168    10.0   .     S
Er165     S166    10.0   .     S
S166     V167    9.999   1_554     S
S166     S172    10.001   .     S
S166     S302    10.001   1_554     S
V167     S166    9.999   1_556     S
V167     Ce168    9.999   1_556     S
V167     Er301    10.0   .     S
Ce168     V167    9.999   1_554     S
Er169     V307    10.0   .     S
Er169     Ce170    10.0   .     S
Er169     S172    10.0   .     S
Er169     Ce174    10.0   .     S
Ce170     Er173    10.0   .     S
Ce170     V171    9.999   .     S
V171     S172    9.999   .     S
S172     S306    10.001   1_554     S
Er173     V238    10.0   .     S
Er173     Ce174    10.0   .     S
Er173     S176    10.0   .     S
Ce174     V175    9.999   .     S
V175     S176    9.999   .     S
V175     Er181    10.0   .     S
S176     S239    10.001   .     S
S176     S183    10.001   .     S
Er177     V424    10.0   .     S
Er177     Ce178    10.0   .     S
Er177     S180    10.0   .     S
Er177     Ce184    10.0   .     S
Ce178     Er181    10.0   .     S
Ce178     V179    9.999   .     S
V179     S180    9.999   .     S
V179     Er201    10.0   .     S
S180     S423    10.001   .     S
S180     S204    10.001   .     S
Er181     Ce184    10.0   .     S
Er181     S183    10.0   .     S
V182     S183    9.999   .     S
V182     Ce184    9.999   .     S
V182     Er185    10.0   .     S
S183     S188    10.001   .     S
Er185     Ce186    10.0   .     S
Er185     S188    10.0   .     S
Er185     Ce192    10.0   .     S
Ce186     Er189    10.0   .     S
Ce186     V187    9.999   .     S
V187     S188    9.999   .     S
V187     Er237    10.0   .     S
S188     S239    10.001   .     S
Er189     V211    10.0   .     S
Er189     Ce192    10.0   .     S
Er189     S191    10.0   .     S
V190     S191    9.999   .     S
V190     Ce192    9.999   .     S
V190     Er197    10.0   .     S
S191     S198    10.001   .     S
S191     S212    10.001   .     S
Er193     V478    10.0   .     S
Er193     Ce196    10.0   .     S
Er193     S194    10.0   .     S
Er193     Ce200    10.0   .     S
S194     V195    9.999   .     S
S194     S479    10.001   1_655     S
S194     S443    10.001   .     S
V195     Ce196    9.999   .     S
V195     Er441    10.0   .     S
Ce196     Er197    10.0   .     S
Er197     Ce200    10.0   .     S
Er197     S198    10.0   .     S
S198     V199    9.999   .     S
S198     S222    10.001   .     S
V199     Ce200    9.999   .     S
V199     Er221    10.0   .     S
Er201     Ce202    10.0   .     S
Er201     S204    10.0   .     S
Er201     Ce208    10.0   .     S
Ce202     Er205    10.0   .     S
Ce202     V203    9.999   .     S
V203     S204    9.999   .     S
V203     Er349    10.0   .     S
S204     S352    10.001   .     S
Er205     Ce208    10.0   .     S
Er205     S207    10.0   .     S
V206     S207    9.999   1_556     S
V206     Ce208    9.999   1_556     S
V206     Er341    10.0   .     S
S207     V206    9.999   1_554     S
S207     S342    10.001   1_554     S
Ce208     V206    9.999   1_554     S
Er209     V223    10.0   .     S
Er209     Ce210    10.0   .     S
Er209     S212    10.0   .     S
Er209     Ce216    10.0   .     S
Ce210     Er213    10.0   .     S
Ce210     V211    9.999   .     S
V211     S212    9.999   .     S
S212     S222    10.001   .     S
Er213     V335    10.0   .     S
Er213     Ce216    10.0   .     S
Er213     S215    10.0   .     S
V214     S215    9.999   .     S
V214     Ce216    9.999   .     S
V214     Er393    10.0   .     S
S215     S336    10.001   .     S
S215     S395    10.001   .     S
Er217     V232    10.0   .     S
Er217     Ce218    10.0   .     S
Er217     S219    10.0   .     S
Er217     Ce224    10.0   .     S
Ce218     Er221    10.0   .     S
Ce218     V220    9.999   .     S
S219     V220    9.999   .     S
S219     S231    10.001   .     S
S219     S295    10.001   .     S
V220     Er293    10.0   .     S
Er221     Ce224    10.0   .     S
Er221     S222    10.0   .     S
S222     V223    9.999   .     S
V223     Ce224    9.999   .     S
Er225     V383    10.0   .     S
Er225     Ce226    10.0   .     S
Er225     S228    10.0   .     S
Er225     Ce230    10.0   .     S
Ce226     Er229    10.0   .     S
Ce226     V227    9.999   1_655     S
V227     S228    9.999   1_455     S
V227     Ce226    9.999   1_455     S
S228     S151    10.001   1_655     S
S228     V227    9.999   1_655     S
S228     S382    10.001   .     S
Er229     V300    10.0   .     S
Er229     Ce230    10.0   .     S
Er229     S231    10.0   .     S
Ce230     V232    9.999   .     S
S231     V232    9.999   .     S
S231     S299    10.001   .     S
Er233     V247    10.0   .     S
Er233     Ce234    10.0   .     S
Er233     S235    10.0   .     S
Er233     Ce240    10.0   .     S
Ce234     Er237    10.0   .     S
Ce234     V236    9.999   .     S
S235     V236    9.999   .     S
S235     S246    10.001   .     S
S235     S451    10.001   .     S
V236     Er449    10.0   .     S
Er237     Ce240    10.0   .     S
Er237     S239    10.0   .     S
V238     S239    9.999   .     S
V238     Ce240    9.999   .     S
Er241     V256    10.0   .     S
Er241     Ce242    10.0   .     S
Er241     S243    10.0   .     S
Er241     Ce248    10.0   .     S
Ce242     Er245    10.0   .     S
Ce242     V244    9.999   .     S
S243     V244    9.999   .     S
S243     S255    10.001   .     S
S243     S319    10.001   .     S
V244     Er317    10.0   .     S
Er245     V459    10.0   .     S
Er245     Ce248    10.0   .     S
Er245     S246    10.0   .     S
S246     V247    9.999   .     S
S246     S460    10.001   .     S
V247     Ce248    9.999   .     S
Er249     Ce250    10.0   .     S
Er249     S251    10.0   .     S
Er249     Ce254    10.0   .     S
Ce250     Er253    10.0   .     S
Ce250     V252    9.999   1_565     S
S251     V252    9.999   1_565     S
S251     S448    10.001   1_565     S
V252     S251    9.999   1_545     S
V252     Ce250    9.999   1_545     S
V252     Er445    10.0   .     S
Er253     V284    10.0   .     S
Er253     Ce254    10.0   .     S
Er253     S255    10.0   .     S
Ce254     V256    9.999   .     S
S255     V256    9.999   .     S
S255     S283    10.001   .     S
Er257     V267    10.0   .     S
Er257     Ce258    10.0   .     S
Er257     S259    10.0   .     S
Er257     Ce264    10.0   .     S
Ce258     Er261    10.0   .     S
Ce258     V260    9.999   1_565     S
S259     V260    9.999   1_565     S
S259     S135    10.001   1_565     S
S259     S266    10.001   .     S
V260     S259    9.999   1_545     S
V260     Ce258    9.999   1_545     S
Er261     V363    10.0   .     S
Er261     Ce264    10.0   .     S
Er261     S262    10.0   .     S
S262     V263    9.999   .     S
S262     S362    10.001   1_556     S
V263     Ce264    9.999   .     S
Er265     Ce268    10.0   .     S
Er265     S266    10.0   .     S
Er265     Ce272    10.0   .     S
S266     V267    9.999   .     S
S266     S122    10.001   1_565     S
V267     Ce268    9.999   .     S
Ce268     Er269    10.0   .     S
Er269     V275    10.0   .     S
Er269     Ce272    10.0   .     S
Er269     S270    10.0   .     S
S270     V271    9.999   1_455     S
S270     S276    10.001   .     S
S270     S286    10.001   1_455     S
V271     S270    9.999   1_655     S
V271     Ce272    9.999   1_655     S
V271     Er285    10.0   .     S
Ce272     V271    9.999   1_455     S
Er273     V291    10.0   .     S
Er273     Ce274    10.0   .     S
Er273     S276    10.0   .     S
Er273     Ce278    10.0   .     S
Ce274     Er277    10.0   .     S
Ce274     V275    9.999   .     S
V275     S276    9.999   .     S
S276     S290    10.001   1_455     S
Er277     Ce278    10.0   .     S
Er277     S280    10.0   .     S
Ce278     V279    9.999   .     S
V279     S280    9.999   .     S
V279     Er469    10.0   .     S
S280     S471    10.001   .     S
Er281     V318    10.0   .     S
Er281     Ce282    10.0   .     S
Er281     S283    10.0   .     S
Er281     Ce288    10.0   .     S
Ce282     Er285    10.0   .     S
Ce282     V284    9.999   .     S
S283     V284    9.999   .     S
S283     S319    10.001   .     S
Er285     Ce288    10.0   .     S
Er285     S286    10.0   .     S
S286     V287    9.999   .     S
S286     S290    10.001   .     S
S286     S270    10.001   1_655     S
V287     Ce288    9.999   .     S
V287     Er289    10.0   .     S
Er289     Ce292    10.0   .     S
Er289     S290    10.0   .     S
Er289     Ce296    10.0   .     S
S290     V291    9.999   1_655     S
S290     S276    10.001   1_655     S
V291     S290    9.999   1_455     S
V291     Ce292    9.999   1_455     S
Ce292     Er293    10.0   .     S
Ce292     V291    9.999   1_655     S
Er293     Ce296    10.0   .     S
Er293     S295    10.0   .     S
V294     S295    9.999   .     S
V294     Ce296    9.999   .     S
V294     Er297    10.0   .     S
S295     S299    10.001   .     S
Er297     Ce298    10.0   .     S
Er297     S299    10.0   .     S
Er297     Ce304    10.0   .     S
Ce298     Er301    10.0   .     S
Ce298     V300    9.999   .     S
S299     V300    9.999   .     S
Er301     Ce304    10.0   .     S
Er301     S302    10.0   .     S
S302     V303    9.999   .     S
S302     S306    10.001   .     S
S302     S166    10.001   1_556     S
V303     Ce304    9.999   .     S
V303     Er305    10.0   .     S
Er305     Ce308    10.0   .     S
Er305     S306    10.0   .     S
Er305     Ce312    10.0   .     S
S306     V307    9.999   1_556     S
S306     S172    10.001   1_556     S
V307     S306    9.999   1_554     S
V307     Ce308    9.999   1_554     S
Ce308     Er309    10.0   .     S
Ce308     V307    9.999   1_556     S
Er309     Ce312    10.0   .     S
Er309     S311    10.0   .     S
V310     S311    9.999   .     S
V310     Ce312    9.999   .     S
V310     Er321    10.0   .     S
S311     S323    10.001   .     S
Er313     V327    10.0   .     S
Er313     Ce316    10.0   .     S
Er313     S315    10.0   .     S
Er313     Ce320    10.0   .     S
V314     S315    9.999   1_545     S
V314     Ce316    9.999   1_545     S
V314     Er397    10.0   .     S
S315     V314    9.999   1_565     S
S315     S326    10.001   .     S
S315     S399    10.001   1_565     S
Ce316     Er317    10.0   .     S
Ce316     V314    9.999   1_565     S
Er317     Ce320    10.0   .     S
Er317     S319    10.0   .     S
V318     S319    9.999   .     S
V318     Ce320    9.999   .     S
Er321     Ce322    10.0   .     S
Er321     S323    10.0   .     S
Er321     Ce328    10.0   .     S
Ce322     Er325    10.0   .     S
Ce322     V324    9.999   .     S
S323     V324    9.999   .     S
Er325     V391    10.0   .     S
Er325     Ce328    10.0   .     S
Er325     S326    10.0   .     S
S326     V327    9.999   .     S
S326     S390    10.001   1_565     S
V327     Ce328    9.999   .     S
Er329     Ce332    10.0   .     S
Er329     S331    10.0   .     S
Er329     Ce334    10.0   .     S
V330     S331    9.999   .     S
V330     Ce332    9.999   .     S
V330     Er337    10.0   .     S
S331     S338    10.001   .     S
Ce332     Er333    10.0   .     S
Er333     V407    10.0   .     S
Er333     Ce334    10.0   .     S
Er333     S336    10.0   .     S
Ce334     V335    9.999   .     S
V335     S336    9.999   .     S
S336     S408    10.001   .     S
Er337     Ce340    10.0   .     S
Er337     S338    10.0   .     S
Er337     Ce344    10.0   .     S
S338     V339    9.999   .     S
V339     Ce340    9.999   .     S
Ce340     Er341    10.0   .     S
Er341     Ce344    10.0   .     S
Er341     S342    10.0   .     S
S342     V343    9.999   .     S
S342     S207    10.001   1_556     S
V343     Ce344    9.999   .     S
Er345     V371    10.0   .     S
Er345     Ce346    10.0   .     S
Er345     S348    10.0   .     S
Er345     Ce350    10.0   .     S
Ce346     Er349    10.0   .     S
Ce346     V347    9.999   .     S
V347     S348    9.999   .     S
V347     Er413    10.0   .     S
S348     S370    10.001   1_545     S
S348     S415    10.001   .     S
Er349     Ce350    10.0   .     S
Er349     S352    10.0   .     S
Ce350     V351    9.999   .     S
V351     S352    9.999   .     S
V351     Er421    10.0   .     S
S352     S423    10.001   .     S
Er353     V368    10.0   .     S
Er353     Ce356    10.0   .     S
Er353     S354    10.0   .     S
Er353     Ce358    10.0   .     S
S354     S162    10.001   1_455     S
S354     V355    9.999   1_455     S
S354     S367    10.001   .     S
V355     S354    9.999   1_655     S
V355     Ce356    9.999   1_655     S
Ce356     Er357    10.0   .     S
Ce356     V355    9.999   1_455     S
Er357     Ce358    10.0   .     S
Er357     S359    10.0   .     S
Ce358     V360    9.999   .     S
S359     V360    9.999   .     S
S359     S468    10.001   .     S
V360     Er465    10.0   .     S
Er361     V375    10.0   .     S
Er361     Ce364    10.0   .     S
Er361     S362    10.0   .     S
Er361     Ce366    10.0   .     S
S362     S262    10.001   1_554     S
S362     V363    9.999   1_554     S
S362     S376    10.001   .     S
V363     S362    9.999   1_556     S
V363     Ce364    9.999   1_556     S
Ce364     Er365    10.0   .     S
Ce364     V363    9.999   1_554     S
Er365     Ce366    10.0   .     S
Er365     S367    10.0   .     S
Ce366     V368    9.999   .     S
S367     S155    10.001   1_455     S
S367     V368    9.999   .     S
Er369     V463    10.0   .     S
Er369     Ce372    10.0   .     S
Er369     S370    10.0   .     S
Er369     Ce374    10.0   .     S
S370     V371    9.999   1_565     S
S370     S348    10.001   1_565     S
S370     S462    10.001   .     S
V371     S370    9.999   1_545     S
V371     Ce372    9.999   1_545     S
Ce372     Er373    10.0   .     S
Ce372     V371    9.999   1_565     S
Er373     Ce374    10.0   .     S
Er373     S376    10.0   .     S
Ce374     V375    9.999   .     S
V375     S376    9.999   .     S
S376     S107    10.001   1_554     S
Er377     V387    10.0   .     S
Er377     Ce378    10.0   .     S
Er377     S380    10.0   .     S
Er377     Ce384    10.0   .     S
Ce378     Er381    10.0   .     S
Ce378     V379    9.999   1_556     S
V379     S380    9.999   1_554     S
V379     Ce378    9.999   1_554     S
V379     Er425    10.0   .     S
S380     V379    9.999   1_556     S
S380     S386    10.001   .     S
S380     S427    10.001   1_556     S
Er381     Ce384    10.0   .     S
Er381     S382    10.0   .     S
S382     V383    9.999   .     S
S382     S130    10.001   1_655     S
V383     Ce384    9.999   .     S
Er385     V419    10.0   .     S
Er385     Ce388    10.0   .     S
Er385     S386    10.0   .     S
Er385     Ce392    10.0   .     S
S386     V387    9.999   .     S
S386     S418    10.001   1_556     S
V387     Ce388    9.999   .     S
Ce388     Er389    10.0   .     S
Er389     V398    10.0   .     S
Er389     Ce392    10.0   .     S
Er389     S390    10.0   .     S
S390     S326    10.001   1_545     S
S390     V391    9.999   1_545     S
S390     S399    10.001   .     S
V391     S390    9.999   1_565     S
V391     Ce392    9.999   1_565     S
Ce392     V391    9.999   1_545     S
Er393     Ce394    10.0   .     S
Er393     S395    10.0   .     S
Er393     Ce400    10.0   .     S
Ce394     Er397    10.0   .     S
Ce394     V396    9.999   .     S
S395     V396    9.999   .     S
S395     S408    10.001   .     S
V396     Er405    10.0   .     S
Er397     Ce400    10.0   .     S
Er397     S399    10.0   .     S
V398     S399    9.999   .     S
V398     Ce400    9.999   .     S
S399     S315    10.001   1_545     S
Er401     Ce402    10.0   .     S
Er401     S404    10.0   .     S
Er401     Ce406    10.0   .     S
Ce402     Er405    10.0   .     S
Ce402     V403    9.999   .     S
V403     S404    9.999   .     S
V403     Er409    10.0   .     S
S404     S412    10.001   .     S
Er405     Ce406    10.0   .     S
Er405     S408    10.0   .     S
Ce406     V407    9.999   .     S
V407     S408    9.999   .     S
Er409     Ce410    10.0   .     S
Er409     S412    10.0   .     S
Er409     Ce416    10.0   .     S
Ce410     Er413    10.0   .     S
Ce410     V411    9.999   .     S
V411     S412    9.999   .     S
V411     Er437    10.0   .     S
S412     S440    10.001   .     S
Er413     Ce416    10.0   .     S
Er413     S415    10.0   .     S
V414     S415    9.999   1_565     S
V414     Ce416    9.999   1_565     S
V414     Er461    10.0   .     S
S415     V414    9.999   1_545     S
S415     S462    10.001   1_545     S
Ce416     V414    9.999   1_545     S
Er417     V428    10.0   .     S
Er417     Ce420    10.0   .     S
Er417     S418    10.0   .     S
Er417     Ce422    10.0   .     S
S418     S386    10.001   1_554     S
S418     V419    9.999   1_554     S
S418     S427    10.001   .     S
V419     S418    9.999   1_556     S
V419     Ce420    9.999   1_556     S
Ce420     Er421    10.0   .     S
Ce420     V419    9.999   1_554     S
Er421     Ce422    10.0   .     S
Er421     S423    10.0   .     S
Ce422     V424    9.999   .     S
S423     V424    9.999   .     S
Er425     Ce426    10.0   .     S
Er425     S427    10.0   .     S
Er425     Ce432    10.0   .     S
Ce426     Er429    10.0   .     S
Ce426     V428    9.999   .     S
S427     S380    10.001   1_554     S
S427     V428    9.999   .     S
Er429     V447    10.0   .     S
Er429     Ce432    10.0   .     S
Er429     S430    10.0   .     S
S430     S158    10.001   1_545     S
S430     V431    9.999   1_545     S
S430     S448    10.001   .     S
V431     S430    9.999   1_565     S
V431     Ce432    9.999   1_565     S
Ce432     V431    9.999   1_545     S
Er433     V442    10.0   .     S
Er433     Ce434    10.0   .     S
Er433     S436    10.0   .     S
Er433     Ce438    10.0   .     S
Ce434     Er437    10.0   .     S
Ce434     V435    9.999   .     S
V435     S436    9.999   .     S
V435     Er477    10.0   .     S
S436     S443    10.001   1_455     S
S436     S479    10.001   .     S
Er437     Ce438    10.0   .     S
Er437     S440    10.0   .     S
Ce438     V439    9.999   .     S
V439     S440    9.999   .     S
Er441     Ce444    10.0   .     S
Er441     S443    10.0   .     S
Er441     Ce446    10.0   .     S
V442     S443    9.999   1_455     S
V442     Ce444    9.999   1_455     S
S443     V442    9.999   1_655     S
S443     S436    10.001   1_655     S
Ce444     Er445    10.0   .     S
Ce444     V442    9.999   1_655     S
Er445     Ce446    10.0   .     S
Er445     S448    10.0   .     S
Ce446     V447    9.999   .     S
V447     S448    9.999   .     S
S448     S251    10.001   1_545     S
Er449     Ce452    10.0   .     S
Er449     S451    10.0   .     S
Er449     Ce454    10.0   .     S
V450     S451    9.999   .     S
V450     Ce452    9.999   .     S
V450     Er457    10.0   .     S
S451     S460    10.001   .     S
Ce452     Er453    10.0   .     S
Er453     V470    10.0   .     S
Er453     Ce454    10.0   .     S
Er453     S455    10.0   .     S
Ce454     V456    9.999   .     S
S455     V456    9.999   .     S
S455     S471    10.001   .     S
Er457     Ce458    10.0   .     S
Er457     S460    10.0   .     S
Er457     Ce464    10.0   .     S
Ce458     Er461    10.0   .     S
Ce458     V459    9.999   .     S
V459     S460    9.999   .     S
Er461     Ce464    10.0   .     S
Er461     S462    10.0   .     S
S462     V463    9.999   .     S
S462     S415    10.001   1_565     S
V463     Ce464    9.999   .     S
Er465     Ce466    10.0   .     S
Er465     S468    10.0   .     S
Er465     Ce472    10.0   .     S
Ce466     Er469    10.0   .     S
Ce466     V467    9.999   .     S
V467     S468    9.999   .     S
V467     Er473    10.0   .     S
S468     S476    10.001   .     S
Er469     Ce472    10.0   .     S
Er469     S471    10.0   .     S
V470     S471    9.999   .     S
V470     Ce472    9.999   .     S
Er473     Ce474    10.0   .     S
Er473     S476    10.0   .     S
Er473     Ce480    10.0   .     S
Ce474     Er477    10.0   .     S
Ce474     V475    9.999   .     S
V475     S476    9.999   .     S
Er477     Ce480    10.0   .     S
Er477     S479    10.0   .     S
V478     S479    9.999   1_655     S
V478     Ce480    9.999   1_655     S
S479     S194    10.001   1_455     S
S479     V478    9.999   1_455     S
Ce480     V478    9.999   1_455     S
