data_ssba
_audit_creation_date              2020-02-02
_audit_creation_method            'Pymatgen'
_symmetry_space_group_name_H-M    'P1'
_symmetry_Int_Tables_number       1
loop_
_symmetry_equiv_pos_as_xyz
  x,y,z
_cell_length_a                    77.1044
_cell_length_b                    77.1044
_cell_length_c                    56.7998
_cell_angle_alpha                 90.0
_cell_angle_beta                 90.0
_cell_angle_gamma                 90.0
loop_
_atom_site_label
_atom_site_type_symbol
_atom_site_fract_x
_atom_site_fract_y
_atom_site_fract_z
V1     V     0.5648   0.2384   0.912
Er2     Er     0.6712   0.2371   0.8113
V3     V     0.5648   0.2384   0.088
Er4     Er     0.6712   0.2371   0.1887
V5     V     0.7384   0.0648   0.588
Er6     Er     0.7371   0.1712   0.6887
V7     V     0.7384   0.0648   0.412
Er8     Er     0.7371   0.1712   0.3113
V9     V     0.7616   0.4352   0.912
Er10     Er     0.7629   0.3288   0.8113
V11     V     0.7616   0.4352   0.088
Er12     Er     0.7629   0.3288   0.1887
Er13     Er     0.8288   0.2629   0.6887
V14     V     0.9352   0.2616   0.588
Er15     Er     0.8288   0.2629   0.3113
V16     V     0.9352   0.2616   0.412
Er17     Er     0.7629   0.6712   0.8113
V18     V     0.7616   0.5648   0.912
Er19     Er     0.7629   0.6712   0.1887
V20     V     0.7616   0.5648   0.088
Er21     Er     0.8288   0.7371   0.6887
V22     V     0.9352   0.7384   0.588
Er23     Er     0.8288   0.7371   0.3113
V24     V     0.9352   0.7384   0.412
Er25     Er     0.7371   0.8288   0.6887
V26     V     0.7384   0.9352   0.588
Er27     Er     0.7371   0.8288   0.3113
V28     V     0.7384   0.9352   0.412
V29     V     0.5648   0.7616   0.912
Er30     Er     0.6712   0.7629   0.8113
Er31     Er     0.6712   0.7629   0.1887
V32     V     0.5648   0.7616   0.088
V33     V     0.2384   0.5648   0.912
Er34     Er     0.2371   0.6712   0.8113
V35     V     0.2384   0.5648   0.088
Er36     Er     0.2371   0.6712   0.1887
V37     V     0.0648   0.7384   0.588
Er38     Er     0.1712   0.7371   0.6887
V39     V     0.0648   0.7384   0.412
Er40     Er     0.1712   0.7371   0.3113
V41     V     0.4352   0.7616   0.912
Er42     Er     0.3288   0.7629   0.8113
V43     V     0.4352   0.7616   0.088
Er44     Er     0.3288   0.7629   0.1887
Er45     Er     0.2629   0.8288   0.6887
V46     V     0.2616   0.9352   0.588
Er47     Er     0.2629   0.8288   0.3113
V48     V     0.2616   0.9352   0.412
V49     V     0.4352   0.2384   0.912
Er50     Er     0.3288   0.2371   0.8113
V51     V     0.4352   0.2384   0.088
Er52     Er     0.3288   0.2371   0.1887
V53     V     0.2616   0.0648   0.588
Er54     Er     0.2629   0.1712   0.6887
V55     V     0.2616   0.0648   0.412
Er56     Er     0.2629   0.1712   0.3113
V57     V     0.2384   0.4352   0.912
Er58     Er     0.2371   0.3288   0.8113
V59     V     0.2384   0.4352   0.088
Er60     Er     0.2371   0.3288   0.1887
V61     V     0.0648   0.2616   0.588
Er62     Er     0.1712   0.2629   0.6887
V63     V     0.0648   0.2616   0.412
Er64     Er     0.1712   0.2629   0.3113
loop_
_geom_bond_atom_site_label_1
_geom_bond_atom_site_label_2
_geom_bond_distance
_geom_bond_site_symmetry_2
_ccdc_geom_bond_type
V1     Er2    10.0   .     S
V1     V3    10.0   1_556     S
V1     V49    10.0   .     S
Er2     Er6    10.0   .     S
Er2     Er10    10.0   .     S
V3     Er4    10.0   .     S
V3     V1    10.0   1_554     S
V3     V51    10.0   .     S
Er4     Er8    10.0   .     S
Er4     Er12    10.0   .     S
V5     Er6    10.0   .     S
V5     V7    10.0   .     S
V5     V26    10.0   1_545     S
Er6     Er13    10.0   .     S
V7     Er8    10.0   .     S
V7     V28    10.0   1_545     S
Er8     Er15    10.0   .     S
V9     Er10    10.0   .     S
V9     V11    10.0   1_556     S
V9     V18    10.0   .     S
Er10     Er13    10.0   .     S
V11     Er12    10.0   .     S
V11     V9    10.0   1_554     S
V11     V20    10.0   .     S
Er12     Er15    10.0   .     S
Er13     V14    10.0   .     S
V14     V16    10.0   .     S
V14     V61    10.0   1_655     S
Er15     V16    10.0   .     S
V16     V63    10.0   1_655     S
Er17     V18    10.0   .     S
Er17     Er21    10.0   .     S
Er17     Er30    10.0   .     S
V18     V20    10.0   1_556     S
Er19     V20    10.0   .     S
Er19     Er23    10.0   .     S
Er19     Er31    10.0   .     S
V20     V18    10.0   1_554     S
Er21     V22    10.0   .     S
Er21     Er25    10.0   .     S
V22     V24    10.0   .     S
V22     V37    10.0   1_655     S
Er23     V24    10.0   .     S
Er23     Er27    10.0   .     S
V24     V39    10.0   1_655     S
Er25     V26    10.0   .     S
Er25     Er30    10.0   .     S
V26     V28    10.0   .     S
V26     V5    10.0   1_565     S
Er27     V28    10.0   .     S
Er27     Er31    10.0   .     S
V28     V7    10.0   1_565     S
V29     Er30    10.0   .     S
V29     V32    10.0   1_556     S
V29     V41    10.0   .     S
Er31     V32    10.0   .     S
V32     V29    10.0   1_554     S
V32     V43    10.0   .     S
V33     Er34    10.0   .     S
V33     V35    10.0   1_556     S
V33     V57    10.0   .     S
Er34     Er38    10.0   .     S
Er34     Er42    10.0   .     S
V35     Er36    10.0   .     S
V35     V33    10.0   1_554     S
V35     V59    10.0   .     S
Er36     Er40    10.0   .     S
Er36     Er44    10.0   .     S
V37     Er38    10.0   .     S
V37     V39    10.0   .     S
V37     V22    10.0   1_455     S
Er38     Er45    10.0   .     S
V39     Er40    10.0   .     S
V39     V24    10.0   1_455     S
Er40     Er47    10.0   .     S
V41     Er42    10.0   .     S
V41     V43    10.0   1_556     S
Er42     Er45    10.0   .     S
V43     Er44    10.0   .     S
V43     V41    10.0   1_554     S
Er44     Er47    10.0   .     S
Er45     V46    10.0   .     S
V46     V48    10.0   .     S
V46     V53    10.0   1_565     S
Er47     V48    10.0   .     S
V48     V55    10.0   1_565     S
V49     Er50    10.0   .     S
V49     V51    10.0   1_556     S
Er50     Er54    10.0   .     S
Er50     Er58    10.0   .     S
V51     Er52    10.0   .     S
V51     V49    10.0   1_554     S
Er52     Er56    10.0   .     S
Er52     Er60    10.0   .     S
V53     Er54    10.0   .     S
V53     V55    10.0   .     S
V53     V46    10.0   1_545     S
Er54     Er62    10.0   .     S
V55     Er56    10.0   .     S
V55     V48    10.0   1_545     S
Er56     Er64    10.0   .     S
V57     Er58    10.0   .     S
V57     V59    10.0   1_556     S
Er58     Er62    10.0   .     S
V59     Er60    10.0   .     S
V59     V57    10.0   1_554     S
Er60     Er64    10.0   .     S
V61     Er62    10.0   .     S
V61     V63    10.0   .     S
V61     V14    10.0   1_455     S
V63     Er64    10.0   .     S
V63     V16    10.0   1_455     S
