data_std
_audit_creation_date              2020-02-02
_audit_creation_method            'Pymatgen'
_symmetry_space_group_name_H-M    'P1'
_symmetry_Int_Tables_number       1
loop_
_symmetry_equiv_pos_as_xyz
  x,y,z
_cell_length_a                    14.1427
_cell_length_b                    14.1427
_cell_length_c                    46.1842
_cell_angle_alpha                 90.0
_cell_angle_beta                 90.0
_cell_angle_gamma                 120.0
loop_
_atom_site_label
_atom_site_type_symbol
_atom_site_fract_x
_atom_site_fract_y
_atom_site_fract_z
Er1     Er     0.3333   0.6667   0.625
Er2     Er     0.3333   0.6667   0.875
V3     V     0.0   0.0   0.75
Er4     Er     0.6667   0.3333   0.375
Er5     Er     0.6667   0.3333   0.125
V6     V     0.0   0.0   0.25
Ti7     Ti     0.0   0.0   0.0
Ti8     Ti     0.0   0.0   0.5
loop_
_geom_bond_atom_site_label_1
_geom_bond_atom_site_label_2
_geom_bond_distance
_geom_bond_site_symmetry_2
_ccdc_geom_bond_type
Er1     V3    10.0   1_565     S
Er1     Ti8    10.0   1_565     S
Er1     Ti8    10.0   1_665     S
Er1     V3    10.0   1_665     S
Er1     Ti8    10.0   .     S
Er1     V3    10.0   .     S
Er2     V3    10.0   .     S
Er2     V3    10.0   1_565     S
Er2     Ti7    10.0   1_566     S
Er2     Ti7    10.0   1_666     S
Er2     V3    10.0   1_665     S
Er2     Ti7    10.0   1_556     S
V3     Er1    10.0   1_545     S
V3     Er1    10.0   1_445     S
V3     Er2    10.0   1_545     S
V3     Er2    10.0   1_445     S
Er4     V6    10.0   .     S
Er4     Ti8    10.0   1_655     S
Er4     Ti8    10.0   1_665     S
Er4     V6    10.0   1_655     S
Er4     Ti8    10.0   .     S
Er4     V6    10.0   1_665     S
Er5     V6    10.0   .     S
Er5     Ti7    10.0   1_655     S
Er5     Ti7    10.0   1_665     S
Er5     V6    10.0   1_655     S
Er5     V6    10.0   1_665     S
Er5     Ti7    10.0   .     S
V6     Er4    10.0   1_455     S
V6     Er5    10.0   1_455     S
V6     Er5    10.0   1_445     S
V6     Er4    10.0   1_445     S
Ti7     Er2    10.0   1_544     S
Ti7     Er2    10.0   1_444     S
Ti7     Er2    10.0   1_554     S
Ti7     Er5    10.0   1_455     S
Ti7     Er5    10.0   1_445     S
Ti8     Er1    10.0   1_545     S
Ti8     Er1    10.0   1_445     S
Ti8     Er4    10.0   1_455     S
Ti8     Er4    10.0   1_445     S
