data_stj
_audit_creation_date              2020-02-02
_audit_creation_method            'Pymatgen'
_symmetry_space_group_name_H-M    'P1'
_symmetry_Int_Tables_number       1
loop_
_symmetry_equiv_pos_as_xyz
  x,y,z
_cell_length_a                    49.462
_cell_length_b                    49.462
_cell_length_c                    27.0553
_cell_angle_alpha                 90.0
_cell_angle_beta                 90.0
_cell_angle_gamma                 90.0
loop_
_atom_site_label
_atom_site_type_symbol
_atom_site_fract_x
_atom_site_fract_y
_atom_site_fract_z
V1     V     0.6011   0.7503   0.0
V2     V     0.3989   0.7503   0.0
V3     V     0.7503   0.3989   0.0
V4     V     0.7503   0.6011   0.0
V5     V     0.3989   0.2497   0.0
V6     V     0.6011   0.2497   0.0
V7     V     0.2497   0.6011   0.0
V8     V     0.2497   0.3989   0.0
V9     V     0.7497   0.8989   0.5
V10     V     0.7497   0.1011   0.5
V11     V     0.8989   0.7497   0.5
V12     V     0.1011   0.7497   0.5
Er13     Er     0.75   0.75   0.75
Er14     Er     0.75   0.75   0.25
V15     V     0.2503   0.8989   0.5
V16     V     0.2503   0.1011   0.5
Er17     Er     0.25   0.75   0.75
Er18     Er     0.25   0.75   0.25
V19     V     0.8989   0.2503   0.5
V20     V     0.1011   0.2503   0.5
Er21     Er     0.75   0.25   0.75
Er22     Er     0.75   0.25   0.25
Er23     Er     0.25   0.25   0.75
Er24     Er     0.25   0.25   0.25
loop_
_geom_bond_atom_site_label_1
_geom_bond_atom_site_label_2
_geom_bond_distance
_geom_bond_site_symmetry_2
_ccdc_geom_bond_type
V1     Er13    10.0   1_554     S
V1     Er14    10.0   .     S
V1     V2    10.0   .     S
V2     Er17    10.0   1_554     S
V2     Er18    10.0   .     S
V3     Er21    10.0   1_554     S
V3     Er22    10.0   .     S
V3     V4    10.0   .     S
V4     Er13    10.0   1_554     S
V4     Er14    10.0   .     S
V5     Er23    10.0   1_554     S
V5     Er24    10.0   .     S
V5     V6    10.0   .     S
V6     Er21    10.0   1_554     S
V6     Er22    10.0   .     S
V7     Er17    10.0   1_554     S
V7     Er18    10.0   .     S
V7     V8    10.0   .     S
V8     Er23    10.0   1_554     S
V8     Er24    10.0   .     S
V9     Er13    10.0   .     S
V9     Er14    10.0   .     S
V9     V10    10.0   1_565     S
V10     Er22    10.0   .     S
V10     Er21    10.0   .     S
V10     V9    10.0   1_545     S
V11     Er14    10.0   .     S
V11     Er13    10.0   .     S
V11     V12    10.0   1_655     S
V12     Er17    10.0   .     S
V12     Er18    10.0   .     S
V12     V11    10.0   1_455     S
Er13     V1    10.0   1_556     S
Er13     V4    10.0   1_556     S
V15     Er18    10.0   .     S
V15     Er17    10.0   .     S
V15     V16    10.0   1_565     S
V16     Er23    10.0   .     S
V16     Er24    10.0   .     S
V16     V15    10.0   1_545     S
Er17     V2    10.0   1_556     S
Er17     V7    10.0   1_556     S
V19     Er21    10.0   .     S
V19     Er22    10.0   .     S
V19     V20    10.0   1_655     S
V20     Er24    10.0   .     S
V20     Er23    10.0   .     S
V20     V19    10.0   1_455     S
Er21     V3    10.0   1_556     S
Er21     V6    10.0   1_556     S
Er23     V5    10.0   1_556     S
Er23     V8    10.0   1_556     S
