data_svu
_audit_creation_date              2020-02-02
_audit_creation_method            'Pymatgen'
_symmetry_space_group_name_H-M    'P1'
_symmetry_Int_Tables_number       1
loop_
_symmetry_equiv_pos_as_xyz
  x,y,z
_cell_length_a                    53.7634
_cell_length_b                    53.7634
_cell_length_c                    53.7634
_cell_angle_alpha                 90.0
_cell_angle_beta                 90.0
_cell_angle_gamma                 90.0
loop_
_atom_site_label
_atom_site_type_symbol
_atom_site_fract_x
_atom_site_fract_y
_atom_site_fract_z
V1     V     0.468   0.2245   0.875
V2     V     0.4745   0.125   0.718
V3     V     0.532   0.2755   0.625
V4     V     0.5255   0.375   0.782
V5     V     0.375   0.282   0.7245
V6     V     0.625   0.218   0.7755
V7     V     0.468   0.5255   0.875
V8     V     0.532   0.4745   0.125
V9     V     0.375   0.468   0.0255
V10     V     0.4745   0.625   0.032
V11     V     0.5255   0.375   0.968
V12     V     0.625   0.532   0.9745
V13     V     0.2245   0.875   0.468
V14     V     0.125   0.718   0.4745
V15     V     0.282   0.7245   0.375
V16     V     0.2755   0.625   0.532
V17     V     0.375   0.782   0.5255
V18     V     0.218   0.7755   0.625
V19     V     0.5255   0.875   0.468
V20     V     0.4745   0.125   0.532
V21     V     0.468   0.0255   0.375
V22     V     0.625   0.032   0.4745
V23     V     0.375   0.968   0.5255
V24     V     0.532   0.9745   0.625
V25     V     0.875   0.468   0.2245
V26     V     0.718   0.4745   0.125
V27     V     0.625   0.532   0.2755
V28     V     0.782   0.5255   0.375
V29     V     0.7245   0.375   0.282
V30     V     0.7755   0.625   0.218
V31     V     0.875   0.468   0.5255
V32     V     0.125   0.532   0.4745
V33     V     0.0255   0.375   0.468
V34     V     0.032   0.4745   0.625
V35     V     0.968   0.5255   0.375
V36     V     0.9745   0.625   0.532
V37     V     0.218   0.4745   0.625
V38     V     0.2245   0.375   0.782
V39     V     0.125   0.532   0.7755
V40     V     0.375   0.468   0.7245
V41     V     0.282   0.5255   0.875
V42     V     0.2755   0.625   0.718
V43     V     0.2755   0.125   0.032
V44     V     0.218   0.2755   0.125
V45     V     0.282   0.2245   0.875
V46     V     0.125   0.218   0.9745
V47     V     0.375   0.282   0.0255
V48     V     0.2245   0.375   0.968
V49     V     0.718   0.7755   0.125
V50     V     0.875   0.782   0.0255
V51     V     0.782   0.7245   0.875
V52     V     0.7755   0.625   0.032
V53     V     0.625   0.718   0.9745
V54     V     0.7245   0.875   0.968
V55     V     0.0255   0.875   0.782
V56     V     0.125   0.718   0.7755
V57     V     0.032   0.7755   0.625
V58     V     0.875   0.782   0.7245
V59     V     0.968   0.7245   0.875
V60     V     0.9745   0.625   0.718
V61     V     0.782   0.0255   0.875
V62     V     0.7755   0.125   0.718
V63     V     0.625   0.032   0.7755
V64     V     0.7245   0.875   0.782
V65     V     0.718   0.9745   0.625
V66     V     0.875   0.968   0.7245
V67     V     0.968   0.0255   0.875
V68     V     0.9745   0.125   0.032
V69     V     0.0255   0.875   0.968
V70     V     0.125   0.032   0.9745
V71     V     0.032   0.9745   0.125
V72     V     0.875   0.968   0.0255
V73     V     0.625   0.218   0.4745
V74     V     0.7245   0.375   0.468
V75     V     0.782   0.2245   0.375
V76     V     0.7755   0.125   0.532
V77     V     0.875   0.282   0.5255
V78     V     0.718   0.2755   0.625
V79     V     0.032   0.2755   0.125
V80     V     0.125   0.218   0.2755
V81     V     0.875   0.282   0.2245
V82     V     0.9745   0.125   0.218
V83     V     0.0255   0.375   0.282
V84     V     0.968   0.2245   0.375
V85     V     0.4745   0.625   0.218
V86     V     0.468   0.7245   0.375
V87     V     0.375   0.782   0.2245
V88     V     0.532   0.7755   0.125
V89     V     0.5255   0.875   0.282
V90     V     0.625   0.718   0.2755
V91     V     0.125   0.032   0.2755
V92     V     0.2755   0.125   0.218
V93     V     0.2245   0.875   0.282
V94     V     0.218   0.9745   0.125
V95     V     0.282   0.0255   0.375
V96     V     0.375   0.968   0.2245
loop_
_geom_bond_atom_site_label_1
_geom_bond_atom_site_label_2
_geom_bond_distance
_geom_bond_site_symmetry_2
_ccdc_geom_bond_type
V1     V6    10.0   .     S
V1     V4    10.0   .     S
V1     V5    10.0   .     S
V1     V2    10.0   .     S
V1     V11    10.0   .     S
V1     V47    10.0   1_556     S
V1     V45    10.0   .     S
V2     V5    10.0   .     S
V2     V6    10.0   .     S
V2     V3    10.0   .     S
V2     V20    10.0   .     S
V2     V63    10.0   .     S
V2     V24    10.0   1_545     S
V3     V6    10.0   .     S
V3     V4    10.0   .     S
V3     V5    10.0   .     S
V3     V78    10.0   .     S
V3     V73    10.0   .     S
V3     V20    10.0   .     S
V4     V6    10.0   .     S
V4     V5    10.0   .     S
V4     V11    10.0   .     S
V4     V40    10.0   .     S
V4     V7    10.0   .     S
V5     V45    10.0   .     S
V5     V38    10.0   .     S
V5     V40    10.0   .     S
V6     V63    10.0   .     S
V6     V62    10.0   .     S
V6     V78    10.0   .     S
V7     V12    10.0   .     S
V7     V11    10.0   .     S
V7     V10    10.0   1_556     S
V7     V9    10.0   1_556     S
V7     V40    10.0   .     S
V7     V41    10.0   .     S
V8     V11    10.0   1_554     S
V8     V9    10.0   .     S
V8     V10    10.0   .     S
V8     V12    10.0   1_554     S
V8     V26    10.0   .     S
V8     V85    10.0   .     S
V8     V27    10.0   .     S
V9     V10    10.0   .     S
V9     V7    10.0   1_554     S
V9     V11    10.0   1_554     S
V9     V41    10.0   1_554     S
V9     V48    10.0   1_554     S
V9     V47    10.0   .     S
V10     V7    10.0   1_554     S
V10     V12    10.0   1_554     S
V10     V85    10.0   .     S
V10     V88    10.0   .     S
V10     V53    10.0   1_554     S
V11     V12    10.0   .     S
V11     V8    10.0   1_556     S
V11     V9    10.0   1_556     S
V11     V47    10.0   1_556     S
V12     V8    10.0   1_556     S
V12     V10    10.0   1_556     S
V12     V53    10.0   .     S
V12     V26    10.0   1_556     S
V12     V52    10.0   1_556     S
V13     V18    10.0   .     S
V13     V17    10.0   .     S
V13     V15    10.0   .     S
V13     V14    10.0   .     S
V13     V23    10.0   .     S
V13     V95    10.0   1_565     S
V13     V93    10.0   .     S
V14     V15    10.0   .     S
V14     V18    10.0   .     S
V14     V16    10.0   .     S
V14     V32    10.0   .     S
V14     V57    10.0   .     S
V14     V36    10.0   1_455     S
V15     V16    10.0   .     S
V15     V17    10.0   .     S
V15     V93    10.0   .     S
V15     V87    10.0   .     S
V15     V86    10.0   .     S
V16     V18    10.0   .     S
V16     V17    10.0   .     S
V16     V42    10.0   .     S
V16     V32    10.0   .     S
V16     V37    10.0   .     S
V17     V18    10.0   .     S
V17     V23    10.0   .     S
V17     V86    10.0   .     S
V17     V19    10.0   .     S
V18     V57    10.0   .     S
V18     V56    10.0   .     S
V18     V42    10.0   .     S
V19     V24    10.0   .     S
V19     V23    10.0   .     S
V19     V22    10.0   1_565     S
V19     V21    10.0   1_565     S
V19     V86    10.0   .     S
V19     V89    10.0   .     S
V20     V23    10.0   1_545     S
V20     V21    10.0   .     S
V20     V22    10.0   .     S
V20     V24    10.0   1_545     S
V20     V73    10.0   .     S
V21     V22    10.0   .     S
V21     V19    10.0   1_545     S
V21     V23    10.0   1_545     S
V21     V89    10.0   1_545     S
V21     V96    10.0   1_545     S
V21     V95    10.0   .     S
V22     V19    10.0   1_545     S
V22     V24    10.0   1_545     S
V22     V73    10.0   .     S
V22     V76    10.0   .     S
V22     V65    10.0   1_545     S
V23     V24    10.0   .     S
V23     V20    10.0   1_565     S
V23     V21    10.0   1_565     S
V23     V95    10.0   1_565     S
V24     V22    10.0   1_565     S
V24     V20    10.0   1_565     S
V24     V65    10.0   .     S
V24     V63    10.0   1_565     S
V24     V2    10.0   1_565     S
V25     V30    10.0   .     S
V25     V28    10.0   .     S
V25     V29    10.0   .     S
V25     V26    10.0   .     S
V25     V35    10.0   .     S
V25     V83    10.0   1_655     S
V25     V81    10.0   .     S
V26     V29    10.0   .     S
V26     V30    10.0   .     S
V26     V27    10.0   .     S
V26     V52    10.0   .     S
V26     V12    10.0   1_554     S
V27     V30    10.0   .     S
V27     V28    10.0   .     S
V27     V29    10.0   .     S
V27     V90    10.0   .     S
V27     V85    10.0   .     S
V28     V30    10.0   .     S
V28     V29    10.0   .     S
V28     V35    10.0   .     S
V28     V31    10.0   .     S
V28     V74    10.0   .     S
V29     V81    10.0   .     S
V29     V75    10.0   .     S
V29     V74    10.0   .     S
V30     V52    10.0   .     S
V30     V49    10.0   .     S
V30     V90    10.0   .     S
V31     V36    10.0   .     S
V31     V35    10.0   .     S
V31     V34    10.0   1_655     S
V31     V33    10.0   1_655     S
V31     V74    10.0   .     S
V31     V77    10.0   .     S
V32     V35    10.0   1_455     S
V32     V33    10.0   .     S
V32     V34    10.0   .     S
V32     V36    10.0   1_455     S
V32     V37    10.0   .     S
V33     V34    10.0   .     S
V33     V31    10.0   1_455     S
V33     V35    10.0   1_455     S
V33     V77    10.0   1_455     S
V33     V84    10.0   1_455     S
V33     V83    10.0   .     S
V34     V31    10.0   1_455     S
V34     V36    10.0   1_455     S
V34     V37    10.0   .     S
V34     V39    10.0   .     S
V34     V60    10.0   1_455     S
V35     V36    10.0   .     S
V35     V32    10.0   1_655     S
V35     V33    10.0   1_655     S
V35     V83    10.0   1_655     S
V36     V32    10.0   1_655     S
V36     V34    10.0   1_655     S
V36     V60    10.0   .     S
V36     V14    10.0   1_655     S
V36     V57    10.0   1_655     S
V37     V40    10.0   .     S
V37     V42    10.0   .     S
V37     V38    10.0   .     S
V37     V39    10.0   .     S
V38     V39    10.0   .     S
V38     V41    10.0   .     S
V38     V40    10.0   .     S
V38     V48    10.0   .     S
V38     V45    10.0   .     S
V39     V41    10.0   .     S
V39     V42    10.0   .     S
V39     V56    10.0   .     S
V39     V60    10.0   1_455     S
V40     V41    10.0   .     S
V40     V42    10.0   .     S
V41     V9    10.0   1_556     S
V41     V42    10.0   .     S
V41     V48    10.0   .     S
V42     V56    10.0   .     S
V43     V47    10.0   .     S
V43     V44    10.0   .     S
V43     V45    10.0   1_554     S
V43     V46    10.0   1_554     S
V43     V92    10.0   .     S
V43     V70    10.0   1_554     S
V43     V94    10.0   1_545     S
V44     V47    10.0   .     S
V44     V48    10.0   1_554     S
V44     V46    10.0   1_554     S
V44     V79    10.0   .     S
V44     V80    10.0   .     S
V44     V92    10.0   .     S
V45     V47    10.0   1_556     S
V45     V43    10.0   1_556     S
V45     V48    10.0   .     S
V45     V46    10.0   .     S
V46     V44    10.0   1_556     S
V46     V48    10.0   .     S
V46     V43    10.0   1_556     S
V46     V70    10.0   .     S
V46     V79    10.0   1_556     S
V46     V68    10.0   1_456     S
V47     V11    10.0   1_554     S
V47     V45    10.0   1_554     S
V47     V48    10.0   1_554     S
V47     V1    10.0   1_554     S
V48     V44    10.0   1_556     S
V48     V47    10.0   1_556     S
V48     V9    10.0   1_556     S
V49     V52    10.0   .     S
V49     V50    10.0   .     S
V49     V54    10.0   1_554     S
V49     V53    10.0   1_554     S
V49     V88    10.0   .     S
V49     V90    10.0   .     S
V50     V52    10.0   .     S
V50     V51    10.0   1_554     S
V50     V54    10.0   1_554     S
V50     V72    10.0   .     S
V50     V59    10.0   1_554     S
V50     V69    10.0   1_654     S
V51     V52    10.0   1_556     S
V51     V53    10.0   .     S
V51     V50    10.0   1_556     S
V51     V54    10.0   .     S
V51     V59    10.0   .     S
V51     V58    10.0   .     S
V51     V64    10.0   .     S
V52     V51    10.0   1_554     S
V52     V53    10.0   1_554     S
V52     V12    10.0   1_554     S
V53     V54    10.0   .     S
V53     V49    10.0   1_556     S
V53     V52    10.0   1_556     S
V53     V88    10.0   1_556     S
V53     V10    10.0   1_556     S
V54     V49    10.0   1_556     S
V54     V50    10.0   1_556     S
V54     V64    10.0   .     S
V54     V72    10.0   1_556     S
V54     V61    10.0   1_565     S
V55     V56    10.0   .     S
V55     V57    10.0   .     S
V55     V58    10.0   1_455     S
V55     V59    10.0   1_455     S
V55     V69    10.0   .     S
V55     V66    10.0   1_455     S
V55     V67    10.0   1_465     S
V56     V59    10.0   1_455     S
V56     V60    10.0   1_455     S
V56     V57    10.0   .     S
V57     V58    10.0   1_455     S
V57     V60    10.0   1_455     S
V57     V36    10.0   1_455     S
V58     V57    10.0   1_655     S
V58     V60    10.0   .     S
V58     V59    10.0   .     S
V58     V55    10.0   1_655     S
V58     V66    10.0   .     S
V58     V64    10.0   .     S
V59     V56    10.0   1_655     S
V59     V60    10.0   .     S
V59     V55    10.0   1_655     S
V59     V50    10.0   1_556     S
V59     V69    10.0   1_655     S
V60     V56    10.0   1_655     S
V60     V57    10.0   1_655     S
V60     V39    10.0   1_655     S
V60     V34    10.0   1_655     S
V61     V62    10.0   .     S
V61     V63    10.0   .     S
V61     V66    10.0   1_545     S
V61     V64    10.0   1_545     S
V61     V67    10.0   .     S
V61     V72    10.0   1_546     S
V61     V54    10.0   1_545     S
V62     V63    10.0   .     S
V62     V66    10.0   1_545     S
V62     V65    10.0   1_545     S
V62     V76    10.0   .     S
V62     V78    10.0   .     S
V63     V64    10.0   1_545     S
V63     V65    10.0   1_545     S
V63     V24    10.0   1_545     S
V64     V63    10.0   1_565     S
V64     V65    10.0   .     S
V64     V66    10.0   .     S
V64     V61    10.0   1_565     S
V65     V66    10.0   .     S
V65     V63    10.0   1_565     S
V65     V62    10.0   1_565     S
V65     V22    10.0   1_565     S
V65     V76    10.0   1_565     S
V66     V62    10.0   1_565     S
V66     V61    10.0   1_565     S
V66     V67    10.0   1_565     S
V66     V55    10.0   1_655     S
V67     V68    10.0   1_556     S
V67     V70    10.0   1_655     S
V67     V72    10.0   1_546     S
V67     V69    10.0   1_645     S
V67     V66    10.0   1_545     S
V67     V55    10.0   1_645     S
V68     V72    10.0   1_545     S
V68     V71    10.0   1_645     S
V68     V67    10.0   1_554     S
V68     V70    10.0   1_654     S
V68     V82    10.0   .     S
V68     V46    10.0   1_654     S
V68     V79    10.0   1_655     S
V69     V70    10.0   1_565     S
V69     V71    10.0   1_556     S
V69     V72    10.0   1_456     S
V69     V67    10.0   1_465     S
V69     V50    10.0   1_456     S
V69     V59    10.0   1_455     S
V70     V67    10.0   1_455     S
V70     V68    10.0   1_456     S
V70     V69    10.0   1_545     S
V70     V71    10.0   1_546     S
V70     V94    10.0   1_546     S
V70     V43    10.0   1_556     S
V71     V68    10.0   1_465     S
V71     V72    10.0   1_455     S
V71     V69    10.0   1_554     S
V71     V70    10.0   1_564     S
V71     V94    10.0   .     S
V71     V91    10.0   1_565     S
V71     V82    10.0   1_465     S
V72     V68    10.0   1_565     S
V72     V71    10.0   1_655     S
V72     V67    10.0   1_564     S
V72     V69    10.0   1_654     S
V72     V61    10.0   1_564     S
V72     V54    10.0   1_554     S
V73     V74    10.0   .     S
V73     V78    10.0   .     S
V73     V75    10.0   .     S
V73     V76    10.0   .     S
V74     V77    10.0   .     S
V74     V78    10.0   .     S
V74     V75    10.0   .     S
V75     V76    10.0   .     S
V75     V77    10.0   .     S
V75     V84    10.0   .     S
V75     V81    10.0   .     S
V76     V77    10.0   .     S
V76     V78    10.0   .     S
V76     V65    10.0   1_545     S
V77     V33    10.0   1_655     S
V77     V78    10.0   .     S
V77     V84    10.0   .     S
V79     V83    10.0   .     S
V79     V80    10.0   .     S
V79     V82    10.0   1_455     S
V79     V81    10.0   1_455     S
V79     V46    10.0   1_554     S
V79     V68    10.0   1_455     S
V80     V83    10.0   .     S
V80     V84    10.0   1_455     S
V80     V82    10.0   1_455     S
V80     V91    10.0   .     S
V80     V92    10.0   .     S
V81     V84    10.0   .     S
V81     V82    10.0   .     S
V81     V83    10.0   1_655     S
V81     V79    10.0   1_655     S
V82     V80    10.0   1_655     S
V82     V84    10.0   .     S
V82     V79    10.0   1_655     S
V82     V91    10.0   1_655     S
V82     V71    10.0   1_645     S
V83     V35    10.0   1_455     S
V83     V81    10.0   1_455     S
V83     V84    10.0   1_455     S
V83     V25    10.0   1_455     S
V84     V80    10.0   1_655     S
V84     V83    10.0   1_655     S
V84     V33    10.0   1_655     S
V85     V87    10.0   .     S
V85     V88    10.0   .     S
V85     V86    10.0   .     S
V85     V90    10.0   .     S
V86     V89    10.0   .     S
V86     V90    10.0   .     S
V86     V87    10.0   .     S
V87     V88    10.0   .     S
V87     V89    10.0   .     S
V87     V96    10.0   .     S
V87     V93    10.0   .     S
V88     V89    10.0   .     S
V88     V90    10.0   .     S
V88     V53    10.0   1_554     S
V89     V21    10.0   1_565     S
V89     V90    10.0   .     S
V89     V96    10.0   .     S
V91     V95    10.0   .     S
V91     V92    10.0   .     S
V91     V94    10.0   1_545     S
V91     V93    10.0   1_545     S
V91     V71    10.0   1_545     S
V91     V82    10.0   1_455     S
V92     V95    10.0   .     S
V92     V96    10.0   1_545     S
V92     V94    10.0   1_545     S
V93     V96    10.0   .     S
V93     V94    10.0   .     S
V93     V95    10.0   1_565     S
V93     V91    10.0   1_565     S
V94     V92    10.0   1_565     S
V94     V96    10.0   .     S
V94     V91    10.0   1_565     S
V94     V70    10.0   1_564     S
V94     V43    10.0   1_565     S
V95     V23    10.0   1_545     S
V95     V93    10.0   1_545     S
V95     V96    10.0   1_545     S
V95     V13    10.0   1_545     S
V96     V92    10.0   1_565     S
V96     V95    10.0   1_565     S
V96     V21    10.0   1_565     S
