data_svw
_audit_creation_date              2020-02-02
_audit_creation_method            'Pymatgen'
_symmetry_space_group_name_H-M    'P1'
_symmetry_Int_Tables_number       1
loop_
_symmetry_equiv_pos_as_xyz
  x,y,z
_cell_length_a                    34.9933
_cell_length_b                    34.9933
_cell_length_c                    34.9933
_cell_angle_alpha                 90.0
_cell_angle_beta                 90.0
_cell_angle_gamma                 90.0
loop_
_atom_site_label
_atom_site_type_symbol
_atom_site_fract_x
_atom_site_fract_y
_atom_site_fract_z
V1     V     0.8911   0.6575   0.5644
V2     V     0.1089   0.8425   0.5644
V3     V     0.6089   0.3425   0.0644
V4     V     0.3911   0.1575   0.0644
V5     V     0.3425   0.0644   0.6089
V6     V     0.1575   0.0644   0.3911
V7     V     0.0644   0.6089   0.3425
V8     V     0.0644   0.3911   0.1575
V9     V     0.6089   0.6575   0.4356
V10     V     0.3911   0.8425   0.4356
V11     V     0.6575   0.4356   0.6089
V12     V     0.8425   0.4356   0.3911
V13     V     0.4356   0.6089   0.6575
V14     V     0.4356   0.3911   0.8425
V15     V     0.6575   0.5644   0.8911
V16     V     0.8425   0.5644   0.1089
V17     V     0.8911   0.3425   0.9356
V18     V     0.1089   0.1575   0.9356
V19     V     0.9356   0.8911   0.3425
V20     V     0.9356   0.1089   0.1575
V21     V     0.3425   0.9356   0.8911
V22     V     0.1575   0.9356   0.1089
V23     V     0.5644   0.8911   0.6575
V24     V     0.5644   0.1089   0.8425
V25     V     0.1089   0.6575   0.0644
V26     V     0.8911   0.8425   0.0644
V27     V     0.6575   0.0644   0.1089
V28     V     0.8425   0.0644   0.8911
V29     V     0.0644   0.1089   0.6575
V30     V     0.0644   0.8911   0.8425
V31     V     0.1575   0.5644   0.6089
V32     V     0.3425   0.5644   0.3911
V33     V     0.8425   0.9356   0.6089
V34     V     0.6575   0.9356   0.3911
V35     V     0.8911   0.1575   0.4356
V36     V     0.1089   0.3425   0.4356
V37     V     0.5644   0.6089   0.1575
V38     V     0.5644   0.3911   0.3425
V39     V     0.1575   0.4356   0.8911
V40     V     0.3425   0.4356   0.1089
V41     V     0.9356   0.6089   0.8425
V42     V     0.9356   0.3911   0.6575
V43     V     0.6089   0.1575   0.5644
V44     V     0.3911   0.3425   0.5644
V45     V     0.4356   0.8911   0.1575
V46     V     0.4356   0.1089   0.3425
V47     V     0.6089   0.8425   0.9356
V48     V     0.3911   0.6575   0.9356
loop_
_geom_bond_atom_site_label_1
_geom_bond_atom_site_label_2
_geom_bond_distance
_geom_bond_site_symmetry_2
_ccdc_geom_bond_type
V1     V31    10.0   1_655     S
V1     V33    10.0   .     S
V1     V2    10.0   1_655     S
V1     V12    10.0   .     S
V1     V7    10.0   1_655     S
V1     V42    10.0   .     S
V1     V41    10.0   .     S
V2     V31    10.0   .     S
V2     V33    10.0   1_455     S
V2     V1    10.0   1_455     S
V2     V19    10.0   1_455     S
V2     V6    10.0   1_565     S
V2     V29    10.0   1_565     S
V2     V30    10.0   .     S
V3     V27    10.0   .     S
V3     V40    10.0   .     S
V3     V4    10.0   .     S
V3     V14    10.0   1_554     S
V3     V15    10.0   1_554     S
V3     V37    10.0   .     S
V3     V38    10.0   .     S
V4     V27    10.0   .     S
V4     V40    10.0   .     S
V4     V24    10.0   1_554     S
V4     V21    10.0   1_544     S
V4     V45    10.0   1_545     S
V4     V46    10.0   .     S
V5     V29    10.0   .     S
V5     V46    10.0   .     S
V5     V6    10.0   .     S
V5     V10    10.0   1_545     S
V5     V23    10.0   1_545     S
V5     V43    10.0   .     S
V5     V44    10.0   .     S
V6     V29    10.0   .     S
V6     V46    10.0   .     S
V6     V2    10.0   1_545     S
V6     V19    10.0   1_445     S
V6     V35    10.0   1_455     S
V6     V36    10.0   .     S
V7     V25    10.0   .     S
V7     V36    10.0   .     S
V7     V8    10.0   .     S
V7     V12    10.0   1_455     S
V7     V1    10.0   1_455     S
V7     V31    10.0   .     S
V7     V32    10.0   .     S
V8     V25    10.0   .     S
V8     V36    10.0   .     S
V8     V16    10.0   1_455     S
V8     V17    10.0   1_454     S
V8     V39    10.0   1_554     S
V8     V40    10.0   .     S
V9     V34    10.0   .     S
V9     V32    10.0   .     S
V9     V10    10.0   .     S
V9     V11    10.0   .     S
V9     V13    10.0   .     S
V9     V38    10.0   .     S
V9     V37    10.0   .     S
V10     V5    10.0   1_565     S
V10     V23    10.0   .     S
V10     V34    10.0   .     S
V10     V32    10.0   .     S
V10     V46    10.0   1_565     S
V10     V45    10.0   .     S
V11     V42    10.0   .     S
V11     V38    10.0   .     S
V11     V12    10.0   .     S
V11     V13    10.0   .     S
V11     V44    10.0   .     S
V11     V43    10.0   .     S
V12     V7    10.0   1_655     S
V12     V42    10.0   .     S
V12     V38    10.0   .     S
V12     V36    10.0   1_655     S
V12     V35    10.0   .     S
V13     V48    10.0   .     S
V13     V44    10.0   .     S
V13     V14    10.0   .     S
V13     V32    10.0   .     S
V13     V31    10.0   .     S
V14     V3    10.0   1_556     S
V14     V15    10.0   .     S
V14     V48    10.0   .     S
V14     V44    10.0   .     S
V14     V40    10.0   1_556     S
V14     V39    10.0   .     S
V15     V3    10.0   1_556     S
V15     V37    10.0   1_556     S
V15     V41    10.0   .     S
V15     V16    10.0   1_556     S
V15     V48    10.0   .     S
V15     V47    10.0   .     S
V16     V37    10.0   .     S
V16     V41    10.0   1_554     S
V16     V15    10.0   1_554     S
V16     V8    10.0   1_655     S
V16     V17    10.0   1_554     S
V16     V25    10.0   1_655     S
V16     V26    10.0   .     S
V17     V16    10.0   1_556     S
V17     V8    10.0   1_656     S
V17     V39    10.0   1_655     S
V17     V18    10.0   1_655     S
V17     V28    10.0   .     S
V17     V41    10.0   .     S
V17     V42    10.0   .     S
V18     V39    10.0   .     S
V18     V17    10.0   1_455     S
V18     V28    10.0   1_455     S
V18     V20    10.0   1_456     S
V18     V22    10.0   1_546     S
V18     V30    10.0   1_545     S
V18     V29    10.0   .     S
V19     V2    10.0   1_655     S
V19     V6    10.0   1_665     S
V19     V26    10.0   .     S
V19     V20    10.0   1_565     S
V19     V35    10.0   1_565     S
V19     V33    10.0   .     S
V19     V34    10.0   .     S
V20     V26    10.0   1_545     S
V20     V19    10.0   1_545     S
V20     V35    10.0   .     S
V20     V18    10.0   1_654     S
V20     V22    10.0   1_645     S
V20     V28    10.0   1_554     S
V20     V27    10.0   .     S
V21     V45    10.0   1_556     S
V21     V22    10.0   1_556     S
V21     V30    10.0   .     S
V21     V24    10.0   1_565     S
V21     V4    10.0   1_566     S
V21     V47    10.0   .     S
V21     V48    10.0   .     S
V22     V18    10.0   1_564     S
V22     V20    10.0   1_465     S
V22     V45    10.0   .     S
V22     V21    10.0   1_554     S
V22     V30    10.0   1_554     S
V22     V26    10.0   1_455     S
V22     V25    10.0   .     S
V23     V5    10.0   1_565     S
V23     V43    10.0   1_565     S
V23     V47    10.0   .     S
V23     V24    10.0   1_565     S
V23     V34    10.0   .     S
V23     V33    10.0   .     S
V24     V4    10.0   1_556     S
V24     V21    10.0   1_545     S
V24     V43    10.0   .     S
V24     V47    10.0   1_545     S
V24     V23    10.0   1_545     S
V24     V27    10.0   1_556     S
V24     V28    10.0   .     S
V25     V16    10.0   1_455     S
V25     V26    10.0   1_455     S
V25     V41    10.0   1_454     S
V25     V39    10.0   1_554     S
V26     V20    10.0   1_565     S
V26     V30    10.0   1_654     S
V26     V28    10.0   1_564     S
V26     V25    10.0   1_655     S
V26     V22    10.0   1_655     S
V27     V24    10.0   1_554     S
V27     V28    10.0   1_554     S
V27     V47    10.0   1_544     S
V27     V45    10.0   1_545     S
V28     V18    10.0   1_655     S
V28     V30    10.0   1_645     S
V28     V26    10.0   1_546     S
V28     V27    10.0   1_556     S
V28     V20    10.0   1_556     S
V29     V30    10.0   1_545     S
V29     V2    10.0   1_545     S
V29     V33    10.0   1_445     S
V29     V35    10.0   1_455     S
V30     V22    10.0   1_556     S
V30     V26    10.0   1_456     S
V30     V28    10.0   1_465     S
V30     V18    10.0   1_565     S
V30     V29    10.0   1_565     S
V31     V1    10.0   1_455     S
V31     V32    10.0   .     S
V31     V42    10.0   1_455     S
V31     V36    10.0   .     S
V32     V44    10.0   .     S
V32     V38    10.0   .     S
V33     V2    10.0   1_655     S
V33     V29    10.0   1_665     S
V33     V35    10.0   1_565     S
V33     V34    10.0   .     S
V34     V43    10.0   1_565     S
V34     V46    10.0   1_565     S
V35     V19    10.0   1_545     S
V35     V33    10.0   1_545     S
V35     V29    10.0   1_655     S
V35     V36    10.0   1_655     S
V35     V6    10.0   1_655     S
V36     V42    10.0   1_455     S
V36     V12    10.0   1_455     S
V36     V35    10.0   1_455     S
V37     V15    10.0   1_554     S
V37     V38    10.0   .     S
V37     V48    10.0   1_554     S
V37     V40    10.0   .     S
V38     V44    10.0   .     S
V39     V17    10.0   1_455     S
V39     V40    10.0   1_556     S
V39     V8    10.0   1_556     S
V39     V41    10.0   1_455     S
V39     V25    10.0   1_556     S
V40     V48    10.0   1_554     S
V40     V14    10.0   1_554     S
V40     V39    10.0   1_554     S
V41     V16    10.0   1_556     S
V41     V25    10.0   1_656     S
V41     V39    10.0   1_655     S
V41     V42    10.0   .     S
V42     V31    10.0   1_655     S
V42     V36    10.0   1_655     S
V43     V23    10.0   1_545     S
V43     V44    10.0   .     S
V43     V34    10.0   1_545     S
V43     V46    10.0   .     S
V45     V21    10.0   1_554     S
V45     V46    10.0   1_565     S
V45     V4    10.0   1_565     S
V45     V47    10.0   1_554     S
V45     V27    10.0   1_565     S
V46     V34    10.0   1_545     S
V46     V10    10.0   1_545     S
V46     V45    10.0   1_545     S
V47     V24    10.0   1_565     S
V47     V27    10.0   1_566     S
V47     V45    10.0   1_556     S
V47     V48    10.0   .     S
V48     V37    10.0   1_556     S
V48     V40    10.0   1_556     S
