data_swd
_audit_creation_date              2020-02-02
_audit_creation_method            'Pymatgen'
_symmetry_space_group_name_H-M    'P1'
_symmetry_Int_Tables_number       1
loop_
_symmetry_equiv_pos_as_xyz
  x,y,z
_cell_length_a                    27.3029
_cell_length_b                    27.3029
_cell_length_c                    25.8488
_cell_angle_alpha                 90.0
_cell_angle_beta                 90.0
_cell_angle_gamma                 120.0
loop_
_atom_site_label
_atom_site_type_symbol
_atom_site_fract_x
_atom_site_fract_y
_atom_site_fract_z
V1     V     0.5446   0.4554   0.6754
V2     V     0.9108   0.4554   0.6754
V3     V     0.5446   0.0892   0.6754
V4     V     0.1221   0.2442   0.6579
V5     V     0.1221   0.8779   0.6579
V6     V     0.7558   0.8779   0.6579
V7     V     0.2112   0.4225   0.0087
V8     V     0.4225   0.2112   0.9913
V9     V     0.7888   0.2112   0.9913
V10     V     0.7888   0.5775   0.9913
V11     V     0.2112   0.7888   0.0087
V12     V     0.5775   0.7888   0.0087
V13     V     0.2442   0.1221   0.3421
V14     V     0.8779   0.1221   0.3421
V15     V     0.8779   0.7558   0.3421
V16     V     0.4554   0.5446   0.3246
V17     V     0.4554   0.9108   0.3246
V18     V     0.0892   0.5446   0.3246
loop_
_geom_bond_atom_site_label_1
_geom_bond_atom_site_label_2
_geom_bond_distance
_geom_bond_site_symmetry_2
_ccdc_geom_bond_type
V1     V16    10.0   .     S
V1     V4    10.0   .     S
V1     V6    10.0   .     S
V1     V3    10.0   .     S
V1     V2    10.0   .     S
V1     V8    10.0   .     S
V1     V10    10.0   .     S
V2     V18    10.0   1_655     S
V2     V5    10.0   1_655     S
V2     V4    10.0   1_655     S
V2     V3    10.0   .     S
V2     V9    10.0   .     S
V2     V10    10.0   .     S
V3     V17    10.0   1_545     S
V3     V5    10.0   1_545     S
V3     V6    10.0   1_545     S
V3     V8    10.0   .     S
V3     V9    10.0   .     S
V4     V7    10.0   1_556     S
V4     V2    10.0   1_455     S
V4     V6    10.0   1_445     S
V4     V5    10.0   1_545     S
V4     V14    10.0   1_455     S
V4     V13    10.0   .     S
V5     V11    10.0   1_556     S
V5     V3    10.0   1_565     S
V5     V2    10.0   1_455     S
V5     V4    10.0   1_565     S
V5     V6    10.0   1_455     S
V5     V13    10.0   1_565     S
V5     V15    10.0   1_455     S
V6     V12    10.0   1_556     S
V6     V3    10.0   1_565     S
V6     V4    10.0   1_665     S
V6     V5    10.0   1_655     S
V6     V15    10.0   .     S
V6     V14    10.0   1_565     S
V7     V4    10.0   1_554     S
V7     V8    10.0   1_554     S
V7     V12    10.0   .     S
V7     V11    10.0   .     S
V7     V9    10.0   1_454     S
V7     V16    10.0   .     S
V7     V18    10.0   .     S
V8     V13    10.0   1_556     S
V8     V7    10.0   1_556     S
V8     V10    10.0   .     S
V8     V9    10.0   .     S
V8     V11    10.0   1_546     S
V9     V12    10.0   1_546     S
V9     V7    10.0   1_656     S
V9     V10    10.0   .     S
V9     V14    10.0   1_556     S
V10     V12    10.0   1_556     S
V10     V15    10.0   1_556     S
V10     V11    10.0   1_656     S
V11     V5    10.0   1_554     S
V11     V10    10.0   1_454     S
V11     V8    10.0   1_564     S
V11     V12    10.0   .     S
V11     V17    10.0   .     S
V11     V18    10.0   .     S
V12     V10    10.0   1_554     S
V12     V6    10.0   1_554     S
V12     V9    10.0   1_564     S
V12     V16    10.0   .     S
V12     V17    10.0   .     S
V13     V8    10.0   1_554     S
V13     V16    10.0   .     S
V13     V15    10.0   1_445     S
V13     V14    10.0   1_455     S
V13     V17    10.0   1_545     S
V13     V5    10.0   1_545     S
V14     V9    10.0   1_554     S
V14     V18    10.0   1_655     S
V14     V17    10.0   1_545     S
V14     V13    10.0   1_655     S
V14     V15    10.0   1_545     S
V14     V6    10.0   1_545     S
V14     V4    10.0   1_655     S
V15     V10    10.0   1_554     S
V15     V16    10.0   .     S
V15     V18    10.0   1_655     S
V15     V13    10.0   1_665     S
V15     V14    10.0   1_565     S
V15     V5    10.0   1_655     S
V16     V18    10.0   .     S
V16     V17    10.0   .     S
V17     V3    10.0   1_565     S
V17     V14    10.0   1_565     S
V17     V13    10.0   1_565     S
V17     V18    10.0   .     S
V18     V2    10.0   1_455     S
V18     V14    10.0   1_455     S
V18     V15    10.0   1_455     S
