data_tbo
_audit_creation_date              2020-02-02
_audit_creation_method            'Pymatgen'
_symmetry_space_group_name_H-M    'P1'
_symmetry_Int_Tables_number       1
loop_
_symmetry_equiv_pos_as_xyz
  x,y,z
_cell_length_a                    48.9898
_cell_length_b                    48.9898
_cell_length_c                    48.9898
_cell_angle_alpha                 90.0
_cell_angle_beta                 90.0
_cell_angle_gamma                 90.0
loop_
_atom_site_label
_atom_site_type_symbol
_atom_site_fract_x
_atom_site_fract_y
_atom_site_fract_z
V1     V     0.6667   0.6667   0.8333
V2     V     0.6667   0.8333   0.6667
V3     V     0.8333   0.6667   0.6667
V4     V     0.8333   0.8333   0.8333
Er5     Er     0.75   0.75   0.0
Er6     Er     0.0   0.75   0.75
Er7     Er     0.75   0.0   0.75
V8     V     0.6667   0.6667   0.1667
V9     V     0.6667   0.1667   0.6667
V10     V     0.1667   0.6667   0.6667
V11     V     0.8333   0.6667   0.3333
Er12     Er     0.0   0.75   0.25
V13     V     0.8333   0.8333   0.1667
V14     V     0.6667   0.8333   0.3333
Er15     Er     0.75   0.0   0.25
V16     V     0.3333   0.8333   0.6667
Er17     Er     0.25   0.0   0.75
V18     V     0.1667   0.8333   0.8333
V19     V     0.3333   0.6667   0.8333
Er20     Er     0.25   0.75   0.0
V21     V     0.8333   0.3333   0.6667
Er22     Er     0.0   0.25   0.75
V23     V     0.8333   0.1667   0.8333
V24     V     0.6667   0.3333   0.8333
Er25     Er     0.75   0.25   0.0
V26     V     0.6667   0.3333   0.1667
V27     V     0.3333   0.6667   0.1667
V28     V     0.6667   0.1667   0.3333
V29     V     0.3333   0.1667   0.3333
V30     V     0.1667   0.8333   0.1667
V31     V     0.3333   0.8333   0.3333
Er32     Er     0.25   0.0   0.25
V33     V     0.3333   0.1667   0.6667
V34     V     0.1667   0.3333   0.6667
V35     V     0.1667   0.3333   0.3333
V36     V     0.8333   0.1667   0.1667
V37     V     0.8333   0.3333   0.3333
Er38     Er     0.0   0.25   0.25
V39     V     0.1667   0.6667   0.3333
V40     V     0.1667   0.1667   0.1667
V41     V     0.3333   0.3333   0.1667
V42     V     0.1667   0.1667   0.8333
V43     V     0.3333   0.3333   0.8333
Er44     Er     0.25   0.25   0.0
Er45     Er     0.25   0.5   0.25
Er46     Er     0.5   0.25   0.25
Er47     Er     0.25   0.25   0.5
Er48     Er     0.25   0.75   0.5
Er49     Er     0.75   0.25   0.5
Er50     Er     0.25   0.5   0.75
Er51     Er     0.75   0.5   0.25
Er52     Er     0.5   0.25   0.75
Er53     Er     0.5   0.75   0.25
Er54     Er     0.75   0.75   0.5
Er55     Er     0.75   0.5   0.75
Er56     Er     0.5   0.75   0.75
loop_
_geom_bond_atom_site_label_1
_geom_bond_atom_site_label_2
_geom_bond_distance
_geom_bond_site_symmetry_2
_ccdc_geom_bond_type
V1     Er55    10.0   .     S
V1     Er56    10.0   .     S
V1     Er5    10.0   1_556     S
V2     Er54    10.0   .     S
V2     Er56    10.0   .     S
V2     Er7    10.0   1_565     S
V3     Er54    10.0   .     S
V3     Er55    10.0   .     S
V3     Er6    10.0   1_655     S
V4     Er5    10.0   1_556     S
V4     Er7    10.0   1_565     S
V4     Er6    10.0   1_655     S
Er5     V1    10.0   1_554     S
Er5     V4    10.0   1_554     S
Er5     V8    10.0   .     S
Er5     V13    10.0   .     S
Er6     V3    10.0   1_455     S
Er6     V4    10.0   1_455     S
Er6     V10    10.0   .     S
Er6     V18    10.0   .     S
Er7     V2    10.0   1_545     S
Er7     V4    10.0   1_545     S
Er7     V9    10.0   .     S
Er7     V23    10.0   .     S
V8     Er53    10.0   .     S
V8     Er51    10.0   .     S
V9     Er49    10.0   .     S
V9     Er52    10.0   .     S
V10     Er48    10.0   .     S
V10     Er50    10.0   .     S
V11     Er54    10.0   .     S
V11     Er51    10.0   .     S
V11     Er12    10.0   1_655     S
Er12     V11    10.0   1_455     S
Er12     V13    10.0   1_455     S
Er12     V30    10.0   .     S
Er12     V39    10.0   .     S
V13     Er15    10.0   1_565     S
V13     Er12    10.0   1_655     S
V14     Er54    10.0   .     S
V14     Er53    10.0   .     S
V14     Er15    10.0   1_565     S
Er15     V13    10.0   1_545     S
Er15     V14    10.0   1_545     S
Er15     V28    10.0   .     S
Er15     V36    10.0   .     S
V16     Er56    10.0   .     S
V16     Er48    10.0   .     S
V16     Er17    10.0   1_565     S
Er17     V16    10.0   1_545     S
Er17     V18    10.0   1_545     S
Er17     V33    10.0   .     S
Er17     V42    10.0   .     S
V18     Er17    10.0   1_565     S
V18     Er20    10.0   1_556     S
V19     Er56    10.0   .     S
V19     Er50    10.0   .     S
V19     Er20    10.0   1_556     S
Er20     V18    10.0   1_554     S
Er20     V19    10.0   1_554     S
Er20     V27    10.0   .     S
Er20     V30    10.0   .     S
V21     Er55    10.0   .     S
V21     Er49    10.0   .     S
V21     Er22    10.0   1_655     S
Er22     V21    10.0   1_455     S
Er22     V23    10.0   1_455     S
Er22     V34    10.0   .     S
Er22     V42    10.0   .     S
V23     Er22    10.0   1_655     S
V23     Er25    10.0   1_556     S
V24     Er55    10.0   .     S
V24     Er52    10.0   .     S
V24     Er25    10.0   1_556     S
Er25     V23    10.0   1_554     S
Er25     V24    10.0   1_554     S
Er25     V26    10.0   .     S
Er25     V36    10.0   .     S
V26     Er51    10.0   .     S
V26     Er46    10.0   .     S
V27     Er53    10.0   .     S
V27     Er45    10.0   .     S
V28     Er49    10.0   .     S
V28     Er46    10.0   .     S
V29     Er47    10.0   .     S
V29     Er46    10.0   .     S
V29     Er32    10.0   .     S
V30     Er32    10.0   1_565     S
V31     Er48    10.0   .     S
V31     Er53    10.0   .     S
V31     Er32    10.0   1_565     S
Er32     V30    10.0   1_545     S
Er32     V31    10.0   1_545     S
Er32     V40    10.0   .     S
V33     Er52    10.0   .     S
V33     Er47    10.0   .     S
V34     Er50    10.0   .     S
V34     Er47    10.0   .     S
V35     Er45    10.0   .     S
V35     Er47    10.0   .     S
V35     Er38    10.0   .     S
V36     Er38    10.0   1_655     S
V37     Er49    10.0   .     S
V37     Er51    10.0   .     S
V37     Er38    10.0   1_655     S
Er38     V36    10.0   1_455     S
Er38     V37    10.0   1_455     S
Er38     V40    10.0   .     S
V39     Er48    10.0   .     S
V39     Er45    10.0   .     S
V40     Er44    10.0   .     S
V41     Er46    10.0   .     S
V41     Er45    10.0   .     S
V41     Er44    10.0   .     S
V42     Er44    10.0   1_556     S
V43     Er50    10.0   .     S
V43     Er52    10.0   .     S
V43     Er44    10.0   1_556     S
Er44     V42    10.0   1_554     S
Er44     V43    10.0   1_554     S
