data_tej
_audit_creation_date              2020-02-02
_audit_creation_method            'Pymatgen'
_symmetry_space_group_name_H-M    'P1'
_symmetry_Int_Tables_number       1
loop_
_symmetry_equiv_pos_as_xyz
  x,y,z
_cell_length_a                    15.8185
_cell_length_b                    15.8185
_cell_length_c                    21.3241
_cell_angle_alpha                 90.0
_cell_angle_beta                 90.0
_cell_angle_gamma                 90.0
loop_
_atom_site_label
_atom_site_type_symbol
_atom_site_fract_x
_atom_site_fract_y
_atom_site_fract_z
V1     V     0.25   0.25   0.0
V2     V     0.75   0.75   0.0
Er3     Er     0.25   0.75   0.25
V4     V     0.25   0.25   0.5
Er5     Er     0.75   0.25   0.75
V6     V     0.75   0.75   0.5
loop_
_geom_bond_atom_site_label_1
_geom_bond_atom_site_label_2
_geom_bond_distance
_geom_bond_site_symmetry_2
_ccdc_geom_bond_type
V1     Er5    9.538   1_454     S
V1     Er5    9.538   1_554     S
V1     Er3    9.538   1_545     S
V1     Er3    9.538   .     S
V1     V2    11.185   .     S
V1     V2    11.185   1_445     S
V1     V4    10.662   .     S
V1     V4    10.662   1_554     S
V2     Er5    9.538   1_554     S
V2     Er5    9.538   1_564     S
V2     Er3    9.538   1_655     S
V2     Er3    9.538   .     S
V2     V1    11.185   1_665     S
V2     V6    10.662   1_554     S
V2     V6    10.662   .     S
Er3     V1    9.538   1_565     S
Er3     V4    9.538   .     S
Er3     V4    9.538   1_565     S
Er3     V6    9.538   .     S
Er3     V6    9.538   1_455     S
Er3     V2    9.538   1_455     S
V4     Er5    9.538   .     S
V4     Er5    9.538   1_455     S
V4     Er3    9.538   1_545     S
V4     V6    11.185   1_455     S
V4     V6    11.185   1_545     S
V4     V1    10.662   1_556     S
Er5     V1    9.538   1_656     S
Er5     V1    9.538   1_556     S
Er5     V2    9.538   1_556     S
Er5     V2    9.538   1_546     S
Er5     V4    9.538   1_655     S
Er5     V6    9.538   .     S
Er5     V6    9.538   1_545     S
V6     Er3    9.538   1_655     S
V6     Er5    9.538   1_565     S
V6     V4    11.185   1_655     S
V6     V4    11.185   1_565     S
V6     V2    10.662   1_556     S
