data_tes
_audit_creation_date              2020-02-02
_audit_creation_method            'Pymatgen'
_symmetry_space_group_name_H-M    'P1'
_symmetry_Int_Tables_number       1
loop_
_symmetry_equiv_pos_as_xyz
  x,y,z
_cell_length_a                    28.2843
_cell_length_b                    28.2843
_cell_length_c                    28.2843
_cell_angle_alpha                 90.0
_cell_angle_beta                 90.0
_cell_angle_gamma                 90.0
loop_
_atom_site_label
_atom_site_type_symbol
_atom_site_fract_x
_atom_site_fract_y
_atom_site_fract_z
V1     V     0.125   0.375   0.375
V2     V     0.375   0.125   0.375
V3     V     0.625   0.875   0.375
V4     V     0.375   0.375   0.125
V5     V     0.625   0.125   0.625
V6     V     0.875   0.125   0.875
V7     V     0.125   0.875   0.875
V8     V     0.375   0.625   0.875
V9     V     0.125   0.625   0.625
V10     V     0.875   0.875   0.125
V11     V     0.625   0.625   0.125
V12     V     0.875   0.375   0.625
V13     V     0.125   0.125   0.625
V14     V     0.875   0.875   0.625
V15     V     0.375   0.375   0.625
V16     V     0.875   0.125   0.375
V17     V     0.125   0.375   0.875
V18     V     0.125   0.625   0.125
V19     V     0.375   0.875   0.125
V20     V     0.625   0.125   0.125
V21     V     0.625   0.875   0.875
V22     V     0.375   0.625   0.375
V23     V     0.875   0.625   0.875
V24     V     0.625   0.375   0.375
loop_
_geom_bond_atom_site_label_1
_geom_bond_atom_site_label_2
_geom_bond_distance
_geom_bond_site_symmetry_2
_ccdc_geom_bond_type
V1     V2    10.0   .     S
V1     V4    10.0   .     S
V1     V9    10.0   .     S
V1     V12    10.0   1_455     S
V1     V13    10.0   .     S
V1     V22    10.0   .     S
V1     V18    10.0   .     S
V1     V16    10.0   1_455     S
V2     V3    10.0   1_545     S
V2     V4    10.0   .     S
V2     V5    10.0   .     S
V2     V20    10.0   .     S
V2     V15    10.0   .     S
V2     V13    10.0   .     S
V2     V19    10.0   1_545     S
V3     V2    10.0   1_565     S
V3     V10    10.0   .     S
V3     V11    10.0   .     S
V3     V5    10.0   1_565     S
V3     V19    10.0   .     S
V3     V16    10.0   1_565     S
V3     V14    10.0   .     S
V3     V22    10.0   .     S
V4     V8    10.0   1_554     S
V4     V11    10.0   .     S
V4     V18    10.0   .     S
V4     V24    10.0   .     S
V4     V20    10.0   .     S
V4     V17    10.0   1_554     S
V5     V6    10.0   .     S
V5     V12    10.0   .     S
V5     V3    10.0   1_545     S
V5     V24    10.0   .     S
V5     V14    10.0   1_545     S
V5     V21    10.0   1_545     S
V5     V15    10.0   .     S
V6     V7    10.0   1_645     S
V6     V10    10.0   1_546     S
V6     V12    10.0   .     S
V6     V13    10.0   1_655     S
V6     V21    10.0   1_545     S
V6     V20    10.0   1_556     S
V6     V17    10.0   1_655     S
V7     V6    10.0   1_465     S
V7     V8    10.0   .     S
V7     V9    10.0   .     S
V7     V10    10.0   1_456     S
V7     V14    10.0   1_455     S
V7     V18    10.0   1_556     S
V7     V13    10.0   1_565     S
V7     V19    10.0   1_556     S
V8     V9    10.0   .     S
V8     V4    10.0   1_556     S
V8     V11    10.0   1_556     S
V8     V19    10.0   1_556     S
V8     V17    10.0   .     S
V8     V15    10.0   .     S
V8     V21    10.0   .     S
V9     V12    10.0   1_455     S
V9     V15    10.0   .     S
V9     V23    10.0   1_455     S
V9     V14    10.0   1_455     S
V9     V22    10.0   .     S
V10     V7    10.0   1_654     S
V10     V6    10.0   1_564     S
V10     V11    10.0   .     S
V10     V20    10.0   1_565     S
V10     V23    10.0   1_554     S
V10     V18    10.0   1_655     S
V10     V16    10.0   1_565     S
V11     V8    10.0   1_554     S
V11     V21    10.0   1_554     S
V11     V22    10.0   .     S
V11     V23    10.0   1_554     S
V11     V24    10.0   .     S
V12     V9    10.0   1_655     S
V12     V1    10.0   1_655     S
V12     V16    10.0   .     S
V12     V17    10.0   1_655     S
V12     V24    10.0   .     S
V12     V23    10.0   .     S
V13     V14    10.0   1_445     S
V13     V15    10.0   .     S
V13     V16    10.0   1_455     S
V13     V17    10.0   .     S
V13     V6    10.0   1_455     S
V13     V7    10.0   1_545     S
V14     V13    10.0   1_665     S
V14     V23    10.0   .     S
V14     V21    10.0   .     S
V14     V16    10.0   1_565     S
V14     V7    10.0   1_655     S
V14     V5    10.0   1_565     S
V14     V9    10.0   1_655     S
V15     V24    10.0   .     S
V15     V17    10.0   .     S
V15     V22    10.0   .     S
V16     V13    10.0   1_655     S
V16     V24    10.0   .     S
V16     V20    10.0   .     S
V16     V14    10.0   1_545     S
V16     V3    10.0   1_545     S
V16     V1    10.0   1_655     S
V16     V10    10.0   1_545     S
V17     V18    10.0   1_556     S
V17     V23    10.0   1_455     S
V17     V12    10.0   1_455     S
V17     V6    10.0   1_455     S
V17     V4    10.0   1_556     S
V18     V17    10.0   1_554     S
V18     V19    10.0   .     S
V18     V23    10.0   1_454     S
V18     V22    10.0   .     S
V18     V7    10.0   1_554     S
V18     V10    10.0   1_455     S
V19     V20    10.0   1_565     S
V19     V21    10.0   1_554     S
V19     V22    10.0   .     S
V19     V8    10.0   1_554     S
V19     V7    10.0   1_554     S
V19     V2    10.0   1_565     S
V20     V19    10.0   1_545     S
V20     V24    10.0   .     S
V20     V21    10.0   1_544     S
V20     V10    10.0   1_545     S
V20     V6    10.0   1_554     S
V21     V19    10.0   1_556     S
V21     V23    10.0   .     S
V21     V20    10.0   1_566     S
V21     V6    10.0   1_565     S
V21     V11    10.0   1_556     S
V21     V5    10.0   1_565     S
V22     V24    10.0   .     S
V23     V17    10.0   1_655     S
V23     V18    10.0   1_656     S
V23     V9    10.0   1_655     S
V23     V10    10.0   1_556     S
V23     V11    10.0   1_556     S
