data_tfya
_audit_creation_date              2020-02-02
_audit_creation_method            'Pymatgen'
_symmetry_space_group_name_H-M    'P1'
_symmetry_Int_Tables_number       1
loop_
_symmetry_equiv_pos_as_xyz
  x,y,z
_cell_length_a                    174.7115
_cell_length_b                    174.7115
_cell_length_c                    174.7115
_cell_angle_alpha                 90.0
_cell_angle_beta                 90.0
_cell_angle_gamma                 90.0
loop_
_atom_site_label
_atom_site_type_symbol
_atom_site_fract_x
_atom_site_fract_y
_atom_site_fract_z
Ti1     Ti     0.0491   0.0884   0.0469
Ti2     Ti     0.0884   0.0469   0.0491
Ti3     Ti     0.0469   0.0491   0.0884
Ti4     Ti     0.0491   0.0884   0.9531
Ti5     Ti     0.0884   0.0469   0.951
Ti6     Ti     0.0469   0.0491   0.9116
Ti7     Ti     0.0884   0.9531   0.0491
Ti8     Ti     0.0469   0.951   0.0884
Ti9     Ti     0.0491   0.9116   0.0469
Ti10     Ti     0.9531   0.0491   0.0884
Ti11     Ti     0.951   0.0884   0.0469
Ti12     Ti     0.9116   0.0469   0.0491
Er13     Er     0.1793   0.0016   0.0
Er14     Er     0.1793   0.9984   0.0
Ce15     Ce     0.1358   0.0222   0.9714
Ce16     Ce     0.1358   0.0222   0.0286
Ce17     Ce     0.1358   0.9778   0.9714
Ce18     Ce     0.1358   0.9778   0.0286
V19     V     0.2298   0.0286   0.0
V20     V     0.2298   0.9714   0.0
Ti21     Ti     0.0491   0.9116   0.9531
Ti22     Ti     0.0884   0.9531   0.951
Ti23     Ti     0.0469   0.951   0.9116
Er24     Er     0.0   0.1793   0.0016
Er25     Er     0.0   0.1793   0.9984
Ce26     Ce     0.0286   0.1358   0.0222
Ce27     Ce     0.9714   0.1358   0.9778
Ce28     Ce     0.0286   0.1358   0.9778
Ce29     Ce     0.9714   0.1358   0.0222
V30     V     0.0   0.2298   0.9714
V31     V     0.0   0.2298   0.0286
Er32     Er     0.8207   0.9984   0.0
Er33     Er     0.8207   0.0016   0.0
Ce34     Ce     0.8642   0.0222   0.0286
Ce35     Ce     0.8642   0.9778   0.9714
Ce36     Ce     0.8642   0.9778   0.0286
Ce37     Ce     0.8642   0.0222   0.9714
V38     V     0.7702   0.0286   0.0
V39     V     0.7702   0.9714   0.0
Ti40     Ti     0.9116   0.0469   0.951
Ti41     Ti     0.951   0.0884   0.9531
Ti42     Ti     0.9531   0.0491   0.9116
Er43     Er     0.0016   0.0   0.8207
Er44     Er     0.9984   0.0   0.8207
Ce45     Ce     0.0222   0.0286   0.8642
Ce46     Ce     0.0222   0.9714   0.8642
Ce47     Ce     0.9778   0.9714   0.8642
Ce48     Ce     0.9778   0.0286   0.8642
V49     V     0.0286   0.0   0.7702
V50     V     0.9714   0.0   0.7702
Ti51     Ti     0.9116   0.9531   0.951
Ti52     Ti     0.9531   0.951   0.9116
Ti53     Ti     0.951   0.9116   0.9531
Er54     Er     0.0   0.8207   0.9984
Er55     Er     0.0   0.8207   0.0016
Ce56     Ce     0.9714   0.8642   0.0222
Ce57     Ce     0.0286   0.8642   0.0222
Ce58     Ce     0.0286   0.8642   0.9778
Ce59     Ce     0.9714   0.8642   0.9778
V60     V     0.0   0.7702   0.0286
V61     V     0.0   0.7702   0.9714
Ti62     Ti     0.9116   0.9531   0.0491
Ti63     Ti     0.9531   0.951   0.0884
Ti64     Ti     0.951   0.9116   0.0469
Er65     Er     0.0016   0.0   0.1793
Er66     Er     0.9984   0.0   0.1793
Ce67     Ce     0.0222   0.9714   0.1358
Ce68     Ce     0.0222   0.0286   0.1358
Ce69     Ce     0.9778   0.0286   0.1358
Ce70     Ce     0.9778   0.9714   0.1358
V71     V     0.0286   0.0   0.2298
V72     V     0.9714   0.0   0.2298
Ti73     Ti     0.5469   0.0884   0.0491
Ti74     Ti     0.5884   0.0491   0.0469
Ti75     Ti     0.549   0.0469   0.0884
Ti76     Ti     0.4531   0.9116   0.0491
Ti77     Ti     0.4116   0.951   0.0469
Ti78     Ti     0.451   0.9531   0.0884
Ti79     Ti     0.5469   0.9116   0.951
Ti80     Ti     0.5884   0.951   0.9531
Ti81     Ti     0.549   0.9531   0.9116
Er82     Er     0.4984   0.8207   0.0
Er83     Er     0.5016   0.8207   0.0
Ce84     Ce     0.4778   0.8642   0.0286
Ce85     Ce     0.5222   0.8642   0.0286
Ce86     Ce     0.4778   0.8642   0.9714
Ce87     Ce     0.5222   0.8642   0.9714
V88     V     0.5286   0.7702   0.0
V89     V     0.4714   0.7702   0.0
Ti90     Ti     0.451   0.9531   0.9116
Ti91     Ti     0.4531   0.9116   0.951
Ti92     Ti     0.4116   0.951   0.9531
Ti93     Ti     0.4531   0.0884   0.0491
Ti94     Ti     0.451   0.0469   0.0884
Ti95     Ti     0.4116   0.0491   0.0469
Er96     Er     0.3207   0.0   0.0016
Er97     Er     0.3207   0.0   0.9984
Ce98     Ce     0.3642   0.9714   0.9778
Ce99     Ce     0.3642   0.9714   0.0222
Ce100     Ce     0.3642   0.0286   0.9778
Ce101     Ce     0.3642   0.0286   0.0222
V102     V     0.2702   0.0   0.9714
V103     V     0.2702   0.0   0.0286
Er104     Er     0.5   0.0016   0.1793
Er105     Er     0.5   0.9984   0.1793
Ce106     Ce     0.5286   0.0222   0.1358
Ce107     Ce     0.4714   0.0222   0.1358
Ce108     Ce     0.5286   0.9778   0.1358
Ce109     Ce     0.4714   0.9778   0.1358
V110     V     0.5   0.0286   0.2298
V111     V     0.5   0.9714   0.2298
Ti112     Ti     0.5884   0.0491   0.9531
Ti113     Ti     0.5469   0.0884   0.951
Ti114     Ti     0.549   0.0469   0.9116
Ti115     Ti     0.5469   0.9116   0.0491
Ti116     Ti     0.5884   0.951   0.0469
Ti117     Ti     0.549   0.9531   0.0884
Er118     Er     0.6793   0.0   0.9984
Er119     Er     0.6793   0.0   0.0016
Ce120     Ce     0.6358   0.0286   0.0222
Ce121     Ce     0.6358   0.0286   0.9778
Ce122     Ce     0.6358   0.9714   0.9778
Ce123     Ce     0.6358   0.9714   0.0222
V124     V     0.7298   0.0   0.0286
V125     V     0.7298   0.0   0.9714
Er126     Er     0.5   0.0016   0.8207
Er127     Er     0.5   0.9984   0.8207
Ce128     Ce     0.5286   0.0222   0.8642
Ce129     Ce     0.5286   0.9778   0.8642
Ce130     Ce     0.4714   0.0222   0.8642
Ce131     Ce     0.4714   0.9778   0.8642
V132     V     0.5   0.0286   0.7702
V133     V     0.5   0.9714   0.7702
Ti134     Ti     0.4116   0.0491   0.9531
Ti135     Ti     0.4531   0.0884   0.951
Ti136     Ti     0.451   0.0469   0.9116
Er137     Er     0.5016   0.1793   0.0
Er138     Er     0.4984   0.1793   0.0
Ce139     Ce     0.5222   0.1358   0.9714
Ce140     Ce     0.4778   0.1358   0.0286
Ce141     Ce     0.4778   0.1358   0.9714
Ce142     Ce     0.5222   0.1358   0.0286
V143     V     0.4714   0.2298   0.0
V144     V     0.5286   0.2298   0.0
Ti145     Ti     0.0469   0.4116   0.951
Ti146     Ti     0.0491   0.4531   0.9116
Ti147     Ti     0.0884   0.451   0.9531
Er148     Er     0.0016   0.3207   0.0
Er149     Er     0.9984   0.3207   0.0
Ce150     Ce     0.9778   0.3642   0.9714
Ce151     Ce     0.0222   0.3642   0.9714
Ce152     Ce     0.9778   0.3642   0.0286
Ce153     Ce     0.0222   0.3642   0.0286
V154     V     0.0286   0.2702   0.0
V155     V     0.9714   0.2702   0.0
Ti156     Ti     0.9531   0.4116   0.951
Ti157     Ti     0.9116   0.451   0.9531
Ti158     Ti     0.951   0.4531   0.9116
Ti159     Ti     0.951   0.5469   0.9116
Ti160     Ti     0.9531   0.5884   0.951
Ti161     Ti     0.9116   0.549   0.9531
Er162     Er     0.0   0.4984   0.8207
Er163     Er     0.0   0.5016   0.8207
Ce164     Ce     0.0286   0.4778   0.8642
Ce165     Ce     0.9714   0.4778   0.8642
Ce166     Ce     0.0286   0.5222   0.8642
Ce167     Ce     0.9714   0.5222   0.8642
V168     V     0.0   0.4714   0.7702
V169     V     0.0   0.5286   0.7702
Ti170     Ti     0.9531   0.4116   0.0491
Ti171     Ti     0.951   0.4531   0.0884
Ti172     Ti     0.9116   0.451   0.0469
Er173     Er     0.8207   0.5   0.9984
Er174     Er     0.8207   0.5   0.0016
Ce175     Ce     0.8642   0.5286   0.9778
Ce176     Ce     0.8642   0.5286   0.0222
Ce177     Ce     0.8642   0.4714   0.0222
Ce178     Ce     0.8642   0.4714   0.9778
V179     V     0.7702   0.5   0.0286
V180     V     0.7702   0.5   0.9714
Ti181     Ti     0.9531   0.5884   0.0491
Ti182     Ti     0.951   0.5469   0.0884
Ti183     Ti     0.9116   0.549   0.0469
Ti184     Ti     0.0469   0.5884   0.951
Ti185     Ti     0.0491   0.5469   0.9116
Ti186     Ti     0.0884   0.549   0.9531
Er187     Er     0.0016   0.6793   0.0
Er188     Er     0.9984   0.6793   0.0
Ce189     Ce     0.0222   0.6358   0.0286
Ce190     Ce     0.9778   0.6358   0.9714
Ce191     Ce     0.9778   0.6358   0.0286
Ce192     Ce     0.0222   0.6358   0.9714
V193     V     0.0286   0.7298   0.0
V194     V     0.9714   0.7298   0.0
Ti195     Ti     0.0491   0.5469   0.0884
Ti196     Ti     0.0469   0.5884   0.0491
Ti197     Ti     0.0884   0.549   0.0469
Er198     Er     0.0   0.4984   0.1793
Er199     Er     0.0   0.5016   0.1793
Ce200     Ce     0.9714   0.5222   0.1358
Ce201     Ce     0.0286   0.4778   0.1358
Ce202     Ce     0.9714   0.4778   0.1358
Ce203     Ce     0.0286   0.5222   0.1358
V204     V     0.0   0.5286   0.2298
V205     V     0.0   0.4714   0.2298
Ti206     Ti     0.0469   0.4116   0.0491
Ti207     Ti     0.0491   0.4531   0.0884
Ti208     Ti     0.0884   0.451   0.0469
Er209     Er     0.1793   0.5   0.0016
Er210     Er     0.1793   0.5   0.9984
Ce211     Ce     0.1358   0.5286   0.9778
Ce212     Ce     0.1358   0.4714   0.9778
Ce213     Ce     0.1358   0.5286   0.0222
Ce214     Ce     0.1358   0.4714   0.0222
V215     V     0.2298   0.5   0.9714
V216     V     0.2298   0.5   0.0286
Ti217     Ti     0.0491   0.4116   0.4531
Ti218     Ti     0.0469   0.451   0.4116
Ti219     Ti     0.0884   0.4531   0.451
Er220     Er     0.1793   0.4984   0.5
Er221     Er     0.1793   0.5016   0.5
Ce222     Ce     0.1358   0.5222   0.5286
Ce223     Ce     0.1358   0.4778   0.5286
Ce224     Ce     0.1358   0.4778   0.4714
Ce225     Ce     0.1358   0.5222   0.4714
V226     V     0.2298   0.5286   0.5
V227     V     0.2298   0.4714   0.5
Ti228     Ti     0.0491   0.5884   0.4531
Ti229     Ti     0.0884   0.5469   0.451
Ti230     Ti     0.0469   0.549   0.4116
Ti231     Ti     0.9116   0.5469   0.451
Ti232     Ti     0.951   0.5884   0.4531
Ti233     Ti     0.9531   0.549   0.4116
Er234     Er     0.0   0.6793   0.5016
Er235     Er     0.0   0.6793   0.4984
Ce236     Ce     0.0286   0.6358   0.4778
Ce237     Ce     0.9714   0.6358   0.4778
Ce238     Ce     0.0286   0.6358   0.5222
Ce239     Ce     0.9714   0.6358   0.5222
V240     V     0.0   0.7298   0.5286
V241     V     0.0   0.7298   0.4714
Er242     Er     0.0   0.3207   0.4984
Er243     Er     0.0   0.3207   0.5016
Ce244     Ce     0.0286   0.3642   0.4778
Ce245     Ce     0.9714   0.3642   0.5222
Ce246     Ce     0.9714   0.3642   0.4778
Ce247     Ce     0.0286   0.3642   0.5222
V248     V     0.0   0.2702   0.4714
V249     V     0.0   0.2702   0.5286
Ti250     Ti     0.951   0.4116   0.5469
Ti251     Ti     0.9531   0.451   0.5884
Ti252     Ti     0.9116   0.4531   0.549
Ti253     Ti     0.9116   0.5469   0.549
Ti254     Ti     0.9531   0.549   0.5884
Ti255     Ti     0.951   0.5884   0.5469
Ti256     Ti     0.0491   0.5884   0.5469
Ti257     Ti     0.0469   0.549   0.5884
Ti258     Ti     0.0884   0.5469   0.549
Ti259     Ti     0.0491   0.4116   0.5469
Ti260     Ti     0.0884   0.4531   0.549
Ti261     Ti     0.0469   0.451   0.5884
Er262     Er     0.0016   0.5   0.6793
Er263     Er     0.9984   0.5   0.6793
Ce264     Ce     0.0222   0.5286   0.6358
Ce265     Ce     0.0222   0.4714   0.6358
Ce266     Ce     0.9778   0.5286   0.6358
Ce267     Ce     0.9778   0.4714   0.6358
V268     V     0.0286   0.5   0.7298
V269     V     0.9714   0.5   0.7298
Er270     Er     0.0016   0.5   0.3207
Er271     Er     0.9984   0.5   0.3207
Ce272     Ce     0.0222   0.5286   0.3642
Ce273     Ce     0.9778   0.5286   0.3642
Ce274     Ce     0.0222   0.4714   0.3642
Ce275     Ce     0.9778   0.4714   0.3642
V276     V     0.0286   0.5   0.2702
V277     V     0.9714   0.5   0.2702
Ti278     Ti     0.951   0.4116   0.4531
Ti279     Ti     0.9531   0.451   0.4116
Ti280     Ti     0.9116   0.4531   0.451
Er281     Er     0.8207   0.5016   0.5
Er282     Er     0.8207   0.4984   0.5
Ce283     Ce     0.8642   0.5222   0.5286
Ce284     Ce     0.8642   0.4778   0.5286
Ce285     Ce     0.8642   0.5222   0.4714
Ce286     Ce     0.8642   0.4778   0.4714
V287     V     0.7702   0.5286   0.5
V288     V     0.7702   0.4714   0.5
Ti289     Ti     0.4116   0.5469   0.0491
Ti290     Ti     0.451   0.5884   0.0469
Ti291     Ti     0.4531   0.549   0.0884
Er292     Er     0.3207   0.5016   0.0
Er293     Er     0.3207   0.4984   0.0
Ce294     Ce     0.3642   0.5222   0.9714
Ce295     Ce     0.3642   0.5222   0.0286
Ce296     Ce     0.3642   0.4778   0.0286
Ce297     Ce     0.3642   0.4778   0.9714
V298     V     0.2702   0.4714   0.0
V299     V     0.2702   0.5286   0.0
Ti300     Ti     0.451   0.4116   0.9531
Ti301     Ti     0.4116   0.4531   0.951
Ti302     Ti     0.4531   0.451   0.9116
Ti303     Ti     0.4116   0.4531   0.0491
Ti304     Ti     0.451   0.4116   0.0469
Ti305     Ti     0.4531   0.451   0.0884
Ti306     Ti     0.5884   0.4531   0.0491
Ti307     Ti     0.5469   0.451   0.0884
Ti308     Ti     0.549   0.4116   0.0469
Er309     Er     0.4984   0.5   0.1793
Er310     Er     0.5016   0.5   0.1793
Ce311     Ce     0.5222   0.5286   0.1358
Ce312     Ce     0.4778   0.4714   0.1358
Ce313     Ce     0.4778   0.5286   0.1358
Ce314     Ce     0.5222   0.4714   0.1358
V315     V     0.4714   0.5   0.2298
V316     V     0.5286   0.5   0.2298
Er317     Er     0.5   0.3207   0.0016
Er318     Er     0.5   0.3207   0.9984
Ce319     Ce     0.5286   0.3642   0.9778
Ce320     Ce     0.5286   0.3642   0.0222
Ce321     Ce     0.4714   0.3642   0.0222
Ce322     Ce     0.4714   0.3642   0.9778
V323     V     0.5   0.2702   0.0286
V324     V     0.5   0.2702   0.9714
Ti325     Ti     0.5469   0.451   0.9116
Ti326     Ti     0.5884   0.4531   0.951
Ti327     Ti     0.549   0.4116   0.9531
Er328     Er     0.6793   0.4984   0.0
Er329     Er     0.6793   0.5016   0.0
Ce330     Ce     0.6358   0.4778   0.0286
Ce331     Ce     0.6358   0.4778   0.9714
Ce332     Ce     0.6358   0.5222   0.0286
Ce333     Ce     0.6358   0.5222   0.9714
V334     V     0.7298   0.5286   0.0
V335     V     0.7298   0.4714   0.0
Er336     Er     0.4984   0.5   0.8207
Er337     Er     0.5016   0.5   0.8207
Ce338     Ce     0.4778   0.5286   0.8642
Ce339     Ce     0.5222   0.4714   0.8642
Ce340     Ce     0.5222   0.5286   0.8642
Ce341     Ce     0.4778   0.4714   0.8642
V342     V     0.4714   0.5   0.7702
V343     V     0.5286   0.5   0.7702
Ti344     Ti     0.5884   0.5469   0.0491
Ti345     Ti     0.549   0.5884   0.0469
Ti346     Ti     0.5469   0.549   0.0884
Ti347     Ti     0.4116   0.5469   0.951
Ti348     Ti     0.451   0.5884   0.9531
Ti349     Ti     0.4531   0.549   0.9116
Ti350     Ti     0.549   0.5884   0.9531
Ti351     Ti     0.5469   0.549   0.9116
Ti352     Ti     0.5884   0.5469   0.951
Er353     Er     0.5   0.6793   0.9984
Er354     Er     0.5   0.6793   0.0016
Ce355     Ce     0.5286   0.6358   0.9778
Ce356     Ce     0.4714   0.6358   0.0222
Ce357     Ce     0.4714   0.6358   0.9778
Ce358     Ce     0.5286   0.6358   0.0222
V359     V     0.5   0.7298   0.0286
V360     V     0.5   0.7298   0.9714
Ti361     Ti     0.5469   0.4116   0.451
Ti362     Ti     0.549   0.4531   0.4116
Ti363     Ti     0.5884   0.451   0.4531
Er364     Er     0.5016   0.3207   0.5
Er365     Er     0.4984   0.3207   0.5
Ce366     Ce     0.4778   0.3642   0.4714
Ce367     Ce     0.4778   0.3642   0.5286
Ce368     Ce     0.5222   0.3642   0.5286
Ce369     Ce     0.5222   0.3642   0.4714
V370     V     0.5286   0.2702   0.5
V371     V     0.4714   0.2702   0.5
Ti372     Ti     0.451   0.5469   0.4116
Ti373     Ti     0.4116   0.549   0.4531
Ti374     Ti     0.4531   0.5884   0.451
Er375     Er     0.5   0.5016   0.3207
Er376     Er     0.5   0.4984   0.3207
Ce377     Ce     0.5286   0.5222   0.3642
Ce378     Ce     0.5286   0.4778   0.3642
Ce379     Ce     0.4714   0.4778   0.3642
Ce380     Ce     0.4714   0.5222   0.3642
V381     V     0.5   0.5286   0.2702
V382     V     0.5   0.4714   0.2702
Ti383     Ti     0.4531   0.4116   0.451
Ti384     Ti     0.451   0.4531   0.4116
Ti385     Ti     0.4116   0.451   0.4531
Ti386     Ti     0.5469   0.5884   0.451
Ti387     Ti     0.549   0.5469   0.4116
Ti388     Ti     0.5884   0.549   0.4531
Er389     Er     0.6793   0.5   0.4984
Er390     Er     0.6793   0.5   0.5016
Ce391     Ce     0.6358   0.5286   0.5222
Ce392     Ce     0.6358   0.5286   0.4778
Ce393     Ce     0.6358   0.4714   0.4778
Ce394     Ce     0.6358   0.4714   0.5222
V395     V     0.7298   0.5   0.4714
V396     V     0.7298   0.5   0.5286
Ti397     Ti     0.451   0.5469   0.5884
Ti398     Ti     0.4116   0.549   0.5469
Ti399     Ti     0.4531   0.5884   0.549
Er400     Er     0.4984   0.6793   0.5
Er401     Er     0.5016   0.6793   0.5
Ce402     Ce     0.5222   0.6358   0.4714
Ce403     Ce     0.5222   0.6358   0.5286
Ce404     Ce     0.4778   0.6358   0.5286
Ce405     Ce     0.4778   0.6358   0.4714
V406     V     0.5286   0.7298   0.5
V407     V     0.4714   0.7298   0.5
Er408     Er     0.3207   0.5   0.5016
Er409     Er     0.3207   0.5   0.4984
Ce410     Ce     0.3642   0.5286   0.5222
Ce411     Ce     0.3642   0.5286   0.4778
Ce412     Ce     0.3642   0.4714   0.4778
Ce413     Ce     0.3642   0.4714   0.5222
V414     V     0.2702   0.5   0.5286
V415     V     0.2702   0.5   0.4714
Ti416     Ti     0.5884   0.451   0.5469
Ti417     Ti     0.5469   0.4116   0.549
Ti418     Ti     0.549   0.4531   0.5884
Ti419     Ti     0.4116   0.451   0.5469
Ti420     Ti     0.4531   0.4116   0.549
Ti421     Ti     0.451   0.4531   0.5884
Ti422     Ti     0.5469   0.5884   0.549
Ti423     Ti     0.549   0.5469   0.5884
Ti424     Ti     0.5884   0.549   0.5469
Er425     Er     0.5   0.5016   0.6793
Er426     Er     0.5   0.4984   0.6793
Ce427     Ce     0.4714   0.5222   0.6358
Ce428     Ce     0.5286   0.4778   0.6358
Ce429     Ce     0.5286   0.5222   0.6358
Ce430     Ce     0.4714   0.4778   0.6358
V431     V     0.5   0.5286   0.7298
V432     V     0.5   0.4714   0.7298
Ti433     Ti     0.451   0.9116   0.4531
Ti434     Ti     0.4116   0.9531   0.451
Ti435     Ti     0.4531   0.951   0.4116
Ti436     Ti     0.5469   0.0491   0.4116
Ti437     Ti     0.5884   0.0469   0.451
Ti438     Ti     0.549   0.0884   0.4531
Er439     Er     0.4984   0.0   0.3207
Er440     Er     0.5016   0.0   0.3207
Ce441     Ce     0.5222   0.9714   0.3642
Ce442     Ce     0.4778   0.9714   0.3642
Ce443     Ce     0.5222   0.0286   0.3642
Ce444     Ce     0.4778   0.0286   0.3642
V445     V     0.4714   0.0   0.2702
V446     V     0.5286   0.0   0.2702
Ti447     Ti     0.4116   0.0469   0.451
Ti448     Ti     0.451   0.0884   0.4531
Ti449     Ti     0.4531   0.0491   0.4116
Er450     Er     0.3207   0.0016   0.5
Er451     Er     0.3207   0.9984   0.5
Ce452     Ce     0.3642   0.0222   0.5286
Ce453     Ce     0.3642   0.9778   0.5286
Ce454     Ce     0.3642   0.9778   0.4714
Ce455     Ce     0.3642   0.0222   0.4714
V456     V     0.2702   0.9714   0.5
V457     V     0.2702   0.0286   0.5
Ti458     Ti     0.5469   0.951   0.4116
Ti459     Ti     0.5884   0.9531   0.451
Ti460     Ti     0.549   0.9116   0.4531
Ti461     Ti     0.5469   0.0491   0.5884
Ti462     Ti     0.5884   0.0469   0.549
Ti463     Ti     0.549   0.0884   0.5469
Er464     Er     0.6793   0.9984   0.5
Er465     Er     0.6793   0.0016   0.5
Ce466     Ce     0.6358   0.9778   0.5286
Ce467     Ce     0.6358   0.0222   0.4714
Ce468     Ce     0.6358   0.9778   0.4714
Ce469     Ce     0.6358   0.0222   0.5286
V470     V     0.7298   0.0286   0.5
V471     V     0.7298   0.9714   0.5
Er472     Er     0.5   0.8207   0.5016
Er473     Er     0.5   0.8207   0.4984
Ce474     Ce     0.5286   0.8642   0.4778
Ce475     Ce     0.4714   0.8642   0.5222
Ce476     Ce     0.5286   0.8642   0.5222
Ce477     Ce     0.4714   0.8642   0.4778
V478     V     0.5   0.7702   0.5286
V479     V     0.5   0.7702   0.4714
Er480     Er     0.5   0.1793   0.4984
Er481     Er     0.5   0.1793   0.5016
Ce482     Ce     0.5286   0.1358   0.5222
Ce483     Ce     0.5286   0.1358   0.4778
Ce484     Ce     0.4714   0.1358   0.4778
Ce485     Ce     0.4714   0.1358   0.5222
V486     V     0.5   0.2298   0.4714
V487     V     0.5   0.2298   0.5286
Ti488     Ti     0.4531   0.0491   0.5884
Ti489     Ti     0.451   0.0884   0.5469
Ti490     Ti     0.4116   0.0469   0.549
Ti491     Ti     0.451   0.9116   0.5469
Ti492     Ti     0.4531   0.951   0.5884
Ti493     Ti     0.4116   0.9531   0.549
Ti494     Ti     0.5469   0.951   0.5884
Ti495     Ti     0.549   0.9116   0.5469
Ti496     Ti     0.5884   0.9531   0.549
Er497     Er     0.4984   0.0   0.6793
Er498     Er     0.5016   0.0   0.6793
Ce499     Ce     0.5222   0.0286   0.6358
Ce500     Ce     0.4778   0.0286   0.6358
Ce501     Ce     0.4778   0.9714   0.6358
Ce502     Ce     0.5222   0.9714   0.6358
V503     V     0.4714   0.0   0.7298
V504     V     0.5286   0.0   0.7298
Er505     Er     0.1793   0.0   0.5016
Er506     Er     0.1793   0.0   0.4984
Ce507     Ce     0.1358   0.9714   0.5222
Ce508     Ce     0.1358   0.9714   0.4778
Ce509     Ce     0.1358   0.0286   0.4778
Ce510     Ce     0.1358   0.0286   0.5222
V511     V     0.2298   0.0   0.4714
V512     V     0.2298   0.0   0.5286
Ti513     Ti     0.0491   0.9531   0.4116
Ti514     Ti     0.0884   0.951   0.4531
Ti515     Ti     0.0469   0.9116   0.451
Ti516     Ti     0.9116   0.0491   0.4531
Ti517     Ti     0.951   0.0469   0.4116
Ti518     Ti     0.9531   0.0884   0.451
Er519     Er     0.8207   0.0   0.4984
Er520     Er     0.8207   0.0   0.5016
Ce521     Ce     0.8642   0.0286   0.4778
Ce522     Ce     0.8642   0.9714   0.4778
Ce523     Ce     0.8642   0.0286   0.5222
Ce524     Ce     0.8642   0.9714   0.5222
V525     V     0.7702   0.0   0.5286
V526     V     0.7702   0.0   0.4714
Ti527     Ti     0.0884   0.0491   0.5469
Ti528     Ti     0.0491   0.0469   0.5884
Ti529     Ti     0.0469   0.0884   0.549
Ti530     Ti     0.0491   0.9531   0.5884
Ti531     Ti     0.0884   0.951   0.5469
Ti532     Ti     0.0469   0.9116   0.549
Ti533     Ti     0.951   0.0469   0.5884
Ti534     Ti     0.9116   0.0491   0.5469
Ti535     Ti     0.9531   0.0884   0.549
Ti536     Ti     0.951   0.9531   0.5884
Ti537     Ti     0.9116   0.951   0.5469
Ti538     Ti     0.9531   0.9116   0.549
Er539     Er     0.0   0.9984   0.6793
Er540     Er     0.0   0.0016   0.6793
Ce541     Ce     0.0286   0.0222   0.6358
Ce542     Ce     0.9714   0.0222   0.6358
Ce543     Ce     0.0286   0.9778   0.6358
Ce544     Ce     0.9714   0.9778   0.6358
V545     V     0.0   0.0286   0.7298
V546     V     0.0   0.9714   0.7298
Er547     Er     0.0016   0.8207   0.5
Er548     Er     0.9984   0.8207   0.5
Ce549     Ce     0.0222   0.8642   0.5286
Ce550     Ce     0.9778   0.8642   0.4714
Ce551     Ce     0.0222   0.8642   0.4714
Ce552     Ce     0.9778   0.8642   0.5286
V553     V     0.0286   0.7702   0.5
V554     V     0.9714   0.7702   0.5
Ti555     Ti     0.9531   0.9116   0.451
Ti556     Ti     0.9116   0.951   0.4531
Ti557     Ti     0.951   0.9531   0.4116
Er558     Er     0.0016   0.1793   0.5
Er559     Er     0.9984   0.1793   0.5
Ce560     Ce     0.9778   0.1358   0.5286
Ce561     Ce     0.0222   0.1358   0.4714
Ce562     Ce     0.0222   0.1358   0.5286
Ce563     Ce     0.9778   0.1358   0.4714
V564     V     0.0286   0.2298   0.5
V565     V     0.9714   0.2298   0.5
Ti566     Ti     0.0884   0.0491   0.4531
Ti567     Ti     0.0469   0.0884   0.451
Ti568     Ti     0.0491   0.0469   0.4116
Er569     Er     0.0   0.9984   0.3207
Er570     Er     0.0   0.0016   0.3207
Ce571     Ce     0.9714   0.0222   0.3642
Ce572     Ce     0.0286   0.9778   0.3642
Ce573     Ce     0.9714   0.9778   0.3642
Ce574     Ce     0.0286   0.0222   0.3642
V575     V     0.0   0.0286   0.2702
V576     V     0.0   0.9714   0.2702
loop_
_geom_bond_atom_site_label_1
_geom_bond_atom_site_label_2
_geom_bond_distance
_geom_bond_site_symmetry_2
_ccdc_geom_bond_type
Ti1     Ce26    10.0   .     S
Ti1     Ti3    10.0   .     S
Ti1     Ti2    10.0   .     S
Ti2     Ce16    10.0   .     S
Ti2     Ti3    10.0   .     S
Ti3     Ce68    10.0   .     S
Ti4     Ce28    10.0   .     S
Ti4     Ti5    10.0   .     S
Ti4     Ti6    10.0   .     S
Ti5     Ce15    10.0   .     S
Ti5     Ti6    10.0   .     S
Ti6     Ce45    10.0   .     S
Ti7     Ce18    10.0   .     S
Ti7     Ti9    10.0   .     S
Ti7     Ti8    10.0   .     S
Ti8     Ce67    10.0   .     S
Ti8     Ti9    10.0   .     S
Ti9     Ce57    10.0   .     S
Ti10     Ce69    10.0   .     S
Ti10     Ti11    10.0   .     S
Ti10     Ti12    10.0   .     S
Ti11     Ce29    10.0   .     S
Ti11     Ti12    10.0   .     S
Ti12     Ce34    10.0   .     S
Er13     Ce18    10.0   1_545     S
Er13     Ce17    10.0   1_544     S
Er13     V19    9.999   .     S
Er14     Ce16    10.0   1_565     S
Er14     Ce15    10.0   1_564     S
Er14     V20    9.999   .     S
Ce15     Er14    10.0   1_546     S
Ce15     Ce16    10.0   1_556     S
Ce16     Er14    10.0   1_545     S
Ce16     Ce15    10.0   1_554     S
Ce17     Er13    10.0   1_566     S
Ce17     Ce18    10.0   1_556     S
Ce17     Ti22    10.0   .     S
Ce18     Er13    10.0   1_565     S
Ce18     Ce17    10.0   1_554     S
V19     V20    10.0   1_545     S
V19     V103    10.001   .     S
V19     V102    10.001   1_554     S
V20     V19    10.0   1_565     S
V20     V103    10.001   1_565     S
V20     V102    10.001   1_564     S
Ti21     Ce58    10.0   .     S
Ti21     Ti23    10.0   .     S
Ti21     Ti22    10.0   .     S
Ti22     Ti23    10.0   .     S
Ti23     Ce46    10.0   .     S
Er24     Ce28    10.0   1_554     S
Er24     Ce27    10.0   1_454     S
Er24     V31    9.999   .     S
Er25     Ce26    10.0   1_556     S
Er25     Ce29    10.0   1_456     S
Er25     V30    9.999   .     S
Ce26     Er25    10.0   1_554     S
Ce26     Ce29    10.0   1_455     S
Ce27     Er24    10.0   1_656     S
Ce27     Ce28    10.0   1_655     S
Ce27     Ti41    10.0   .     S
Ce28     Er24    10.0   1_556     S
Ce28     Ce27    10.0   1_455     S
Ce29     Er25    10.0   1_654     S
Ce29     Ce26    10.0   1_655     S
V30     V31    10.0   1_556     S
V30     V154    10.001   1_556     S
V30     V155    10.001   1_456     S
V31     V30    10.0   1_554     S
V31     V154    10.001   .     S
V31     V155    10.001   1_455     S
Er32     Ce34    10.0   1_565     S
Er32     Ce37    10.0   1_564     S
Er32     V39    9.999   .     S
Er33     Ce36    10.0   1_545     S
Er33     Ce35    10.0   1_544     S
Er33     V38    9.999   .     S
Ce34     Er32    10.0   1_545     S
Ce34     Ce37    10.0   1_554     S
Ce35     Er33    10.0   1_566     S
Ce35     Ce36    10.0   1_556     S
Ce35     Ti51    10.0   .     S
Ce36     Er33    10.0   1_565     S
Ce36     Ce35    10.0   1_554     S
Ce36     Ti62    10.0   .     S
Ce37     Er32    10.0   1_546     S
Ce37     Ce34    10.0   1_556     S
Ce37     Ti40    10.0   .     S
V38     V39    10.0   1_545     S
V38     V124    10.001   .     S
V38     V125    10.001   1_554     S
V39     V38    10.0   1_565     S
V39     V125    10.001   1_564     S
V39     V124    10.001   1_565     S
Ti40     Ti42    10.0   .     S
Ti40     Ti41    10.0   .     S
Ti41     Ti42    10.0   .     S
Ti42     Ce48    10.0   .     S
Er43     Ce48    10.0   1_455     S
Er43     Ce47    10.0   1_445     S
Er43     V49    9.999   .     S
Er44     Ce45    10.0   1_655     S
Er44     Ce46    10.0   1_645     S
Er44     V50    9.999   .     S
Ce45     Er44    10.0   1_455     S
Ce45     Ce46    10.0   1_545     S
Ce46     Er44    10.0   1_465     S
Ce46     Ce45    10.0   1_565     S
Ce47     Er43    10.0   1_665     S
Ce47     Ce48    10.0   1_565     S
Ce47     Ti52    10.0   .     S
Ce48     Er43    10.0   1_655     S
Ce48     Ce47    10.0   1_545     S
V49     V546    10.001   1_545     S
V49     V545    10.001   .     S
V49     V50    10.0   1_455     S
V50     V546    10.001   1_645     S
V50     V545    10.001   1_655     S
V50     V49    10.0   1_655     S
Ti51     Ti52    10.0   .     S
Ti51     Ti53    10.0   .     S
Ti52     Ti53    10.0   .     S
Ti53     Ce59    10.0   .     S
Er54     Ce57    10.0   1_556     S
Er54     Ce56    10.0   1_456     S
Er54     V61    9.999   .     S
Er55     Ce58    10.0   1_554     S
Er55     Ce59    10.0   1_454     S
Er55     V60    9.999   .     S
Ce56     Er54    10.0   1_654     S
Ce56     Ce57    10.0   1_655     S
Ce56     Ti64    10.0   .     S
Ce57     Er54    10.0   1_554     S
Ce57     Ce56    10.0   1_455     S
Ce58     Er55    10.0   1_556     S
Ce58     Ce59    10.0   1_455     S
Ce59     Er55    10.0   1_656     S
Ce59     Ce58    10.0   1_655     S
V60     V194    10.001   1_455     S
V60     V193    10.001   .     S
V60     V61    10.0   1_554     S
V61     V194    10.001   1_456     S
V61     V193    10.001   1_556     S
V61     V60    10.0   1_556     S
Ti62     Ti64    10.0   .     S
Ti62     Ti63    10.0   .     S
Ti63     Ce70    10.0   .     S
Ti63     Ti64    10.0   .     S
Er65     Ce70    10.0   1_445     S
Er65     Ce69    10.0   1_455     S
Er65     V71    9.999   .     S
Er66     Ce67    10.0   1_645     S
Er66     Ce68    10.0   1_655     S
Er66     V72    9.999   .     S
Ce67     Er66    10.0   1_465     S
Ce67     Ce68    10.0   1_565     S
Ce68     Er66    10.0   1_455     S
Ce68     Ce67    10.0   1_545     S
Ce69     Er65    10.0   1_655     S
Ce69     Ce70    10.0   1_545     S
Ce70     Er65    10.0   1_665     S
Ce70     Ce69    10.0   1_565     S
V71     V72    10.0   1_455     S
V71     V575    10.001   .     S
V71     V576    10.001   1_545     S
V72     V71    10.0   1_655     S
V72     V575    10.001   1_655     S
V72     V576    10.001   1_645     S
Ti73     Ce142    10.0   .     S
Ti73     Ti74    10.0   .     S
Ti73     Ti75    10.0   .     S
Ti74     Ce120    10.0   .     S
Ti74     Ti75    10.0   .     S
Ti75     Ce106    10.0   .     S
Ti76     Ce84    10.0   .     S
Ti76     Ti78    10.0   .     S
Ti76     Ti77    10.0   .     S
Ti77     Ce99    10.0   .     S
Ti77     Ti78    10.0   .     S
Ti78     Ce109    10.0   .     S
Ti79     Ce87    10.0   .     S
Ti79     Ti80    10.0   .     S
Ti79     Ti81    10.0   .     S
Ti80     Ce122    10.0   .     S
Ti80     Ti81    10.0   .     S
Ti81     Ce129    10.0   .     S
Er82     Ce85    10.0   .     S
Er82     Ce87    10.0   1_554     S
Er82     V89    9.999   .     S
Er83     Ce84    10.0   .     S
Er83     Ce86    10.0   1_554     S
Er83     V88    9.999   .     S
Ce84     Ce86    10.0   1_554     S
Ce85     Ce87    10.0   1_554     S
Ce85     Ti115    10.0   .     S
Ce86     Er83    10.0   1_556     S
Ce86     Ce84    10.0   1_556     S
Ce86     Ti91    10.0   .     S
Ce87     Er82    10.0   1_556     S
Ce87     Ce85    10.0   1_556     S
V88     V360    10.001   1_554     S
V88     V359    10.001   .     S
V88     V89    10.0   .     S
V89     V359    10.001   .     S
V89     V360    10.001   1_554     S
Ti90     Ce131    10.0   .     S
Ti90     Ti92    10.0   .     S
Ti90     Ti91    10.0   .     S
Ti91     Ti92    10.0   .     S
Ti92     Ce98    10.0   .     S
Ti93     Ce140    10.0   .     S
Ti93     Ti95    10.0   .     S
Ti93     Ti94    10.0   .     S
Ti94     Ce107    10.0   .     S
Ti94     Ti95    10.0   .     S
Ti95     Ce101    10.0   .     S
Er96     Ce98    10.0   1_544     S
Er96     Ce100    10.0   1_554     S
Er96     V103    9.999   .     S
Er97     Ce99    10.0   1_546     S
Er97     Ce101    10.0   1_556     S
Er97     V102    9.999   .     S
Ce98     Er96    10.0   1_566     S
Ce98     Ce100    10.0   1_565     S
Ce99     Er97    10.0   1_564     S
Ce99     Ce101    10.0   1_565     S
Ce100     Er96    10.0   1_556     S
Ce100     Ce98    10.0   1_545     S
Ce100     Ti134    10.0   .     S
Ce101     Er97    10.0   1_554     S
Ce101     Ce99    10.0   1_545     S
V102     V20    10.001   1_546     S
V102     V19    10.001   1_556     S
V102     V103    10.0   1_556     S
V103     V20    10.001   1_545     S
V103     V102    10.0   1_554     S
Er104     Ce108    10.0   1_545     S
Er104     Ce109    10.0   1_545     S
Er104     V110    9.999   .     S
Er105     Ce106    10.0   1_565     S
Er105     Ce107    10.0   1_565     S
Er105     V111    9.999   .     S
Ce106     Er105    10.0   1_545     S
Ce106     Ce107    10.0   .     S
Ce107     Er105    10.0   1_545     S
Ce108     Er104    10.0   1_565     S
Ce108     Ce109    10.0   .     S
Ce108     Ti117    10.0   .     S
Ce109     Er104    10.0   1_565     S
V110     V111    10.0   1_545     S
V110     V445    10.001   .     S
V110     V446    10.001   .     S
V111     V110    10.0   1_565     S
V111     V445    10.001   1_565     S
V111     V446    10.001   1_565     S
Ti112     Ce121    10.0   .     S
Ti112     Ti114    10.0   .     S
Ti112     Ti113    10.0   .     S
Ti113     Ce139    10.0   .     S
Ti113     Ti114    10.0   .     S
Ti114     Ce128    10.0   .     S
Ti115     Ti116    10.0   .     S
Ti115     Ti117    10.0   .     S
Ti116     Ce123    10.0   .     S
Ti116     Ti117    10.0   .     S
Er118     Ce120    10.0   1_556     S
Er118     Ce123    10.0   1_546     S
Er118     V125    9.999   .     S
Er119     Ce121    10.0   1_554     S
Er119     Ce122    10.0   1_544     S
Er119     V124    9.999   .     S
Ce120     Er118    10.0   1_554     S
Ce120     Ce123    10.0   1_545     S
Ce121     Er119    10.0   1_556     S
Ce121     Ce122    10.0   1_545     S
Ce122     Er119    10.0   1_566     S
Ce122     Ce121    10.0   1_565     S
Ce123     Er118    10.0   1_564     S
Ce123     Ce120    10.0   1_565     S
V124     V39    10.001   1_545     S
V124     V125    10.0   1_554     S
V125     V39    10.001   1_546     S
V125     V38    10.001   1_556     S
V125     V124    10.0   1_556     S
Er126     Ce129    10.0   1_545     S
Er126     Ce131    10.0   1_545     S
Er126     V132    9.999   .     S
Er127     Ce128    10.0   1_565     S
Er127     Ce130    10.0   1_565     S
Er127     V133    9.999   .     S
Ce128     Er127    10.0   1_545     S
Ce128     Ce130    10.0   .     S
Ce129     Er126    10.0   1_565     S
Ce129     Ce131    10.0   .     S
Ce130     Er127    10.0   1_545     S
Ce130     Ti136    10.0   .     S
Ce131     Er126    10.0   1_565     S
V132     V133    10.0   1_545     S
V132     V504    10.001   .     S
V132     V503    10.001   .     S
V133     V132    10.0   1_565     S
V133     V504    10.001   1_565     S
V133     V503    10.001   1_565     S
Ti134     Ti136    10.0   .     S
Ti134     Ti135    10.0   .     S
Ti135     Ce141    10.0   .     S
Ti135     Ti136    10.0   .     S
Er137     Ce141    10.0   1_554     S
Er137     Ce140    10.0   .     S
Er137     V144    9.999   .     S
Er138     Ce139    10.0   1_554     S
Er138     Ce142    10.0   .     S
Er138     V143    9.999   .     S
Ce139     Er138    10.0   1_556     S
Ce139     Ce142    10.0   1_556     S
Ce140     Ce141    10.0   1_554     S
Ce141     Er137    10.0   1_556     S
Ce141     Ce140    10.0   1_556     S
Ce142     Ce139    10.0   1_554     S
V143     V323    10.001   .     S
V143     V324    10.001   1_554     S
V143     V144    10.0   .     S
V144     V324    10.001   1_554     S
V144     V323    10.001   .     S
Ti145     Ce151    10.0   .     S
Ti145     Ti147    10.0   .     S
Ti145     Ti146    10.0   .     S
Ti146     Ce164    10.0   .     S
Ti146     Ti147    10.0   .     S
Ti147     Ce212    10.0   .     S
Er148     Ce150    10.0   1_454     S
Er148     Ce152    10.0   1_455     S
Er148     V154    9.999   .     S
Er149     Ce151    10.0   1_654     S
Er149     Ce153    10.0   1_655     S
Er149     V155    9.999   .     S
Ce150     Er148    10.0   1_656     S
Ce150     Ce152    10.0   1_556     S
Ce150     Ti156    10.0   .     S
Ce151     Er149    10.0   1_456     S
Ce151     Ce153    10.0   1_556     S
Ce152     Er148    10.0   1_655     S
Ce152     Ce150    10.0   1_554     S
Ce152     Ti170    10.0   .     S
Ce153     Er149    10.0   1_455     S
Ce153     Ce151    10.0   1_554     S
Ce153     Ti206    10.0   .     S
V154     V30    10.001   1_554     S
V154     V155    10.0   1_455     S
V155     V30    10.001   1_654     S
V155     V31    10.001   1_655     S
V155     V154    10.0   1_655     S
Ti156     Ti157    10.0   .     S
Ti156     Ti158    10.0   .     S
Ti157     Ce178    10.0   .     S
Ti157     Ti158    10.0   .     S
Ti158     Ce165    10.0   .     S
Ti159     Ce167    10.0   .     S
Ti159     Ti160    10.0   .     S
Ti159     Ti161    10.0   .     S
Ti160     Ce190    10.0   .     S
Ti160     Ti161    10.0   .     S
Ti161     Ce175    10.0   .     S
Er162     Ce166    10.0   .     S
Er162     Ce167    10.0   1_455     S
Er162     V168    9.999   .     S
Er163     Ce164    10.0   .     S
Er163     Ce165    10.0   1_455     S
Er163     V169    9.999   .     S
Ce164     Ce165    10.0   1_455     S
Ce165     Er163    10.0   1_655     S
Ce165     Ce164    10.0   1_655     S
Ce166     Ce167    10.0   1_455     S
Ce166     Ti185    10.0   .     S
Ce167     Er162    10.0   1_655     S
Ce167     Ce166    10.0   1_655     S
V168     V269    10.001   1_455     S
V168     V268    10.001   .     S
V168     V169    10.0   .     S
V169     V269    10.001   1_455     S
V169     V268    10.001   .     S
Ti170     Ti172    10.0   .     S
Ti170     Ti171    10.0   .     S
Ti171     Ce202    10.0   .     S
Ti171     Ti172    10.0   .     S
Ti172     Ce177    10.0   .     S
Er173     Ce176    10.0   1_556     S
Er173     Ce177    10.0   1_556     S
Er173     V180    9.999   .     S
Er174     Ce175    10.0   1_554     S
Er174     Ce178    10.0   1_554     S
Er174     V179    9.999   .     S
Ce175     Er174    10.0   1_556     S
Ce175     Ce178    10.0   .     S
Ce176     Er173    10.0   1_554     S
Ce176     Ce177    10.0   .     S
Ce176     Ti183    10.0   .     S
Ce177     Er173    10.0   1_554     S
Ce178     Er174    10.0   1_556     S
V179     V180    10.0   1_554     S
V179     V334    10.001   .     S
V179     V335    10.001   .     S
V180     V179    10.0   1_556     S
V180     V334    10.001   1_556     S
V180     V335    10.001   1_556     S
Ti181     Ce191    10.0   .     S
Ti181     Ti182    10.0   .     S
Ti181     Ti183    10.0   .     S
Ti182     Ce200    10.0   .     S
Ti182     Ti183    10.0   .     S
Ti184     Ce192    10.0   .     S
Ti184     Ti185    10.0   .     S
Ti184     Ti186    10.0   .     S
Ti185     Ti186    10.0   .     S
Ti186     Ce211    10.0   .     S
Er187     Ce191    10.0   1_455     S
Er187     Ce190    10.0   1_454     S
Er187     V193    9.999   .     S
Er188     Ce189    10.0   1_655     S
Er188     Ce192    10.0   1_654     S
Er188     V194    9.999   .     S
Ce189     Er188    10.0   1_455     S
Ce189     Ce192    10.0   1_554     S
Ce189     Ti196    10.0   .     S
Ce190     Er187    10.0   1_656     S
Ce190     Ce191    10.0   1_556     S
Ce191     Er187    10.0   1_655     S
Ce191     Ce190    10.0   1_554     S
Ce192     Er188    10.0   1_456     S
Ce192     Ce189    10.0   1_556     S
V193     V61    10.001   1_554     S
V193     V194    10.0   1_455     S
V194     V60    10.001   1_655     S
V194     V61    10.001   1_654     S
V194     V193    10.0   1_655     S
Ti195     Ce203    10.0   .     S
Ti195     Ti196    10.0   .     S
Ti195     Ti197    10.0   .     S
Ti196     Ti197    10.0   .     S
Ti197     Ce213    10.0   .     S
Er198     Ce200    10.0   1_455     S
Er198     Ce203    10.0   .     S
Er198     V205    9.999   .     S
Er199     Ce202    10.0   1_455     S
Er199     Ce201    10.0   .     S
Er199     V204    9.999   .     S
Ce200     Er198    10.0   1_655     S
Ce200     Ce203    10.0   1_655     S
Ce201     Ce202    10.0   1_455     S
Ce201     Ti207    10.0   .     S
Ce202     Er199    10.0   1_655     S
Ce202     Ce201    10.0   1_655     S
Ce203     Ce200    10.0   1_455     S
V204     V276    10.001   .     S
V204     V277    10.001   1_455     S
V204     V205    10.0   .     S
V205     V276    10.001   .     S
V205     V277    10.001   1_455     S
Ti206     Ti208    10.0   .     S
Ti206     Ti207    10.0   .     S
Ti207     Ti208    10.0   .     S
Ti208     Ce214    10.0   .     S
Er209     Ce212    10.0   1_554     S
Er209     Ce211    10.0   1_554     S
Er209     V216    9.999   .     S
Er210     Ce214    10.0   1_556     S
Er210     Ce213    10.0   1_556     S
Er210     V215    9.999   .     S
Ce211     Er209    10.0   1_556     S
Ce211     Ce212    10.0   .     S
Ce212     Er209    10.0   1_556     S
Ce213     Er210    10.0   1_554     S
Ce213     Ce214    10.0   .     S
Ce214     Er210    10.0   1_554     S
V215     V216    10.0   1_556     S
V215     V299    10.001   1_556     S
V215     V298    10.001   1_556     S
V216     V215    10.0   1_554     S
V216     V299    10.001   .     S
V216     V298    10.001   .     S
Ti217     Ce244    10.0   .     S
Ti217     Ti219    10.0   .     S
Ti217     Ti218    10.0   .     S
Ti218     Ce274    10.0   .     S
Ti218     Ti219    10.0   .     S
Ti219     Ce224    10.0   .     S
Er220     Ce222    10.0   .     S
Er220     Ce225    10.0   .     S
Er220     V227    9.999   .     S
Er221     Ce223    10.0   .     S
Er221     Ce224    10.0   .     S
Er221     V226    9.999   .     S
Ce222     Ce225    10.0   .     S
Ce222     Ti258    10.0   .     S
Ce223     Ce224    10.0   .     S
Ce223     Ti260    10.0   .     S
Ce225     Ti229    10.0   .     S
V226     V414    10.001   .     S
V226     V415    10.001   .     S
V226     V227    10.0   .     S
V227     V415    10.001   .     S
V227     V414    10.001   .     S
Ti228     Ce236    10.0   .     S
Ti228     Ti229    10.0   .     S
Ti228     Ti230    10.0   .     S
Ti229     Ti230    10.0   .     S
Ti230     Ce272    10.0   .     S
Ti231     Ce285    10.0   .     S
Ti231     Ti233    10.0   .     S
Ti231     Ti232    10.0   .     S
Ti232     Ce237    10.0   .     S
Ti232     Ti233    10.0   .     S
Ti233     Ce273    10.0   .     S
Er234     Ce237    10.0   1_455     S
Er234     Ce236    10.0   .     S
Er234     V240    9.999   .     S
Er235     Ce239    10.0   1_455     S
Er235     Ce238    10.0   .     S
Er235     V241    9.999   .     S
Ce236     Ce237    10.0   1_455     S
Ce237     Er234    10.0   1_655     S
Ce237     Ce236    10.0   1_655     S
Ce238     Ce239    10.0   1_455     S
Ce238     Ti256    10.0   .     S
Ce239     Er235    10.0   1_655     S
Ce239     Ce238    10.0   1_655     S
Ce239     Ti255    10.0   .     S
V240     V554    10.001   1_455     S
V240     V553    10.001   .     S
V240     V241    10.0   .     S
V241     V554    10.001   1_455     S
V241     V553    10.001   .     S
Er242     Ce247    10.0   .     S
Er242     Ce245    10.0   1_455     S
Er242     V248    9.999   .     S
Er243     Ce244    10.0   .     S
Er243     Ce246    10.0   1_455     S
Er243     V249    9.999   .     S
Ce244     Ce246    10.0   1_455     S
Ce245     Er242    10.0   1_655     S
Ce245     Ce247    10.0   1_655     S
Ce245     Ti250    10.0   .     S
Ce246     Er243    10.0   1_655     S
Ce246     Ce244    10.0   1_655     S
Ce246     Ti278    10.0   .     S
Ce247     Ce245    10.0   1_455     S
Ce247     Ti259    10.0   .     S
V248     V564    10.001   .     S
V248     V565    10.001   1_455     S
V248     V249    10.0   .     S
V249     V565    10.001   1_455     S
V249     V564    10.001   .     S
Ti250     Ti252    10.0   .     S
Ti250     Ti251    10.0   .     S
Ti251     Ce267    10.0   .     S
Ti251     Ti252    10.0   .     S
Ti252     Ce284    10.0   .     S
Ti253     Ce283    10.0   .     S
Ti253     Ti255    10.0   .     S
Ti253     Ti254    10.0   .     S
Ti254     Ce266    10.0   .     S
Ti254     Ti255    10.0   .     S
Ti256     Ti258    10.0   .     S
Ti256     Ti257    10.0   .     S
Ti257     Ce264    10.0   .     S
Ti257     Ti258    10.0   .     S
Ti259     Ti261    10.0   .     S
Ti259     Ti260    10.0   .     S
Ti260     Ti261    10.0   .     S
Ti261     Ce265    10.0   .     S
Er262     Ce266    10.0   1_455     S
Er262     Ce267    10.0   1_455     S
Er262     V268    9.999   .     S
Er263     Ce264    10.0   1_655     S
Er263     Ce265    10.0   1_655     S
Er263     V269    9.999   .     S
Ce264     Er263    10.0   1_455     S
Ce264     Ce265    10.0   .     S
Ce265     Er263    10.0   1_455     S
Ce266     Er262    10.0   1_655     S
Ce266     Ce267    10.0   .     S
Ce267     Er262    10.0   1_655     S
V268     V269    10.0   1_455     S
V269     V169    10.001   1_655     S
V269     V168    10.001   1_655     S
V269     V268    10.0   1_655     S
Er270     Ce273    10.0   1_455     S
Er270     Ce275    10.0   1_455     S
Er270     V276    9.999   .     S
Er271     Ce272    10.0   1_655     S
Er271     Ce274    10.0   1_655     S
Er271     V277    9.999   .     S
Ce272     Er271    10.0   1_455     S
Ce272     Ce274    10.0   .     S
Ce273     Er270    10.0   1_655     S
Ce273     Ce275    10.0   .     S
Ce274     Er271    10.0   1_455     S
Ce275     Er270    10.0   1_655     S
Ce275     Ti279    10.0   .     S
V276     V277    10.0   1_455     S
V277     V205    10.001   1_655     S
V277     V204    10.001   1_655     S
V277     V276    10.0   1_655     S
Ti278     Ti279    10.0   .     S
Ti278     Ti280    10.0   .     S
Ti279     Ti280    10.0   .     S
Ti280     Ce286    10.0   .     S
Er281     Ce284    10.0   .     S
Er281     Ce286    10.0   .     S
Er281     V287    9.999   .     S
Er282     Ce283    10.0   .     S
Er282     Ce285    10.0   .     S
Er282     V288    9.999   .     S
Ce283     Ce285    10.0   .     S
Ce284     Ce286    10.0   .     S
V287     V288    10.0   .     S
V287     V396    10.001   .     S
V287     V395    10.001   .     S
V288     V396    10.001   .     S
V288     V395    10.001   .     S
Ti289     Ce295    10.0   .     S
Ti289     Ti290    10.0   .     S
Ti289     Ti291    10.0   .     S
Ti290     Ce356    10.0   .     S
Ti290     Ti291    10.0   .     S
Ti291     Ce313    10.0   .     S
Er292     Ce296    10.0   .     S
Er292     Ce297    10.0   1_554     S
Er292     V299    9.999   .     S
Er293     Ce295    10.0   .     S
Er293     Ce294    10.0   1_554     S
Er293     V298    9.999   .     S
Ce294     Er293    10.0   1_556     S
Ce294     Ce295    10.0   1_556     S
Ce294     Ti347    10.0   .     S
Ce295     Ce294    10.0   1_554     S
Ce296     Ce297    10.0   1_554     S
Ce296     Ti303    10.0   .     S
Ce297     Er292    10.0   1_556     S
Ce297     Ce296    10.0   1_556     S
Ce297     Ti301    10.0   .     S
V298     V215    10.001   1_554     S
V298     V299    10.0   .     S
V299     V215    10.001   1_554     S
Ti300     Ce322    10.0   .     S
Ti300     Ti302    10.0   .     S
Ti300     Ti301    10.0   .     S
Ti301     Ti302    10.0   .     S
Ti302     Ce341    10.0   .     S
Ti303     Ti305    10.0   .     S
Ti303     Ti304    10.0   .     S
Ti304     Ce321    10.0   .     S
Ti304     Ti305    10.0   .     S
Ti305     Ce312    10.0   .     S
Ti306     Ce330    10.0   .     S
Ti306     Ti307    10.0   .     S
Ti306     Ti308    10.0   .     S
Ti307     Ce314    10.0   .     S
Ti307     Ti308    10.0   .     S
Ti308     Ce320    10.0   .     S
Er309     Ce311    10.0   .     S
Er309     Ce314    10.0   .     S
Er309     V315    9.999   .     S
Er310     Ce313    10.0   .     S
Er310     Ce312    10.0   .     S
Er310     V316    9.999   .     S
Ce311     Ce314    10.0   .     S
Ce311     Ti346    10.0   .     S
Ce312     Ce313    10.0   .     S
V315     V316    10.0   .     S
V315     V382    10.001   .     S
V315     V381    10.001   .     S
V316     V382    10.001   .     S
V316     V381    10.001   .     S
Er317     Ce319    10.0   1_554     S
Er317     Ce322    10.0   1_554     S
Er317     V323    9.999   .     S
Er318     Ce320    10.0   1_556     S
Er318     Ce321    10.0   1_556     S
Er318     V324    9.999   .     S
Ce319     Er317    10.0   1_556     S
Ce319     Ce322    10.0   .     S
Ce319     Ti327    10.0   .     S
Ce320     Er318    10.0   1_554     S
Ce320     Ce321    10.0   .     S
Ce321     Er318    10.0   1_554     S
Ce322     Er317    10.0   1_556     S
V323     V324    10.0   1_554     S
V324     V143    10.001   1_556     S
V324     V144    10.001   1_556     S
V324     V323    10.0   1_556     S
Ti325     Ce339    10.0   .     S
Ti325     Ti327    10.0   .     S
Ti325     Ti326    10.0   .     S
Ti326     Ce331    10.0   .     S
Ti326     Ti327    10.0   .     S
Er328     Ce333    10.0   1_554     S
Er328     Ce332    10.0   .     S
Er328     V335    9.999   .     S
Er329     Ce331    10.0   1_554     S
Er329     Ce330    10.0   .     S
Er329     V334    9.999   .     S
Ce330     Ce331    10.0   1_554     S
Ce331     Er329    10.0   1_556     S
Ce331     Ce330    10.0   1_556     S
Ce332     Ce333    10.0   1_554     S
Ce332     Ti344    10.0   .     S
Ce333     Er328    10.0   1_556     S
Ce333     Ce332    10.0   1_556     S
Ce333     Ti352    10.0   .     S
V334     V180    10.001   1_554     S
V334     V335    10.0   .     S
V335     V180    10.001   1_554     S
Er336     Ce340    10.0   .     S
Er336     Ce339    10.0   .     S
Er336     V342    9.999   .     S
Er337     Ce338    10.0   .     S
Er337     Ce341    10.0   .     S
Er337     V343    9.999   .     S
Ce338     Ce341    10.0   .     S
Ce338     Ti349    10.0   .     S
Ce339     Ce340    10.0   .     S
Ce340     Ti351    10.0   .     S
V342     V343    10.0   .     S
V342     V431    10.001   .     S
V342     V432    10.001   .     S
V343     V431    10.001   .     S
V343     V432    10.001   .     S
Ti344     Ti346    10.0   .     S
Ti344     Ti345    10.0   .     S
Ti345     Ce358    10.0   .     S
Ti345     Ti346    10.0   .     S
Ti347     Ti349    10.0   .     S
Ti347     Ti348    10.0   .     S
Ti348     Ce357    10.0   .     S
Ti348     Ti349    10.0   .     S
Ti350     Ce355    10.0   .     S
Ti350     Ti352    10.0   .     S
Ti350     Ti351    10.0   .     S
Ti351     Ti352    10.0   .     S
Er353     Ce356    10.0   1_556     S
Er353     Ce358    10.0   1_556     S
Er353     V360    9.999   .     S
Er354     Ce357    10.0   1_554     S
Er354     Ce355    10.0   1_554     S
Er354     V359    9.999   .     S
Ce355     Er354    10.0   1_556     S
Ce355     Ce357    10.0   .     S
Ce356     Er353    10.0   1_554     S
Ce356     Ce358    10.0   .     S
Ce357     Er354    10.0   1_556     S
Ce358     Er353    10.0   1_554     S
V359     V360    10.0   1_554     S
V360     V88    10.001   1_556     S
V360     V89    10.001   1_556     S
V360     V359    10.0   1_556     S
Ti361     Ce369    10.0   .     S
Ti361     Ti363    10.0   .     S
Ti361     Ti362    10.0   .     S
Ti362     Ce378    10.0   .     S
Ti362     Ti363    10.0   .     S
Ti363     Ce393    10.0   .     S
Er364     Ce367    10.0   .     S
Er364     Ce366    10.0   .     S
Er364     V370    9.999   .     S
Er365     Ce368    10.0   .     S
Er365     Ce369    10.0   .     S
Er365     V371    9.999   .     S
Ce366     Ce367    10.0   .     S
Ce366     Ti383    10.0   .     S
Ce367     Ti420    10.0   .     S
Ce368     Ce369    10.0   .     S
Ce368     Ti417    10.0   .     S
V370     V486    10.001   .     S
V370     V487    10.001   .     S
V370     V371    10.0   .     S
V371     V486    10.001   .     S
V371     V487    10.001   .     S
Ti372     Ce380    10.0   .     S
Ti372     Ti374    10.0   .     S
Ti372     Ti373    10.0   .     S
Ti373     Ce411    10.0   .     S
Ti373     Ti374    10.0   .     S
Ti374     Ce405    10.0   .     S
Er375     Ce378    10.0   .     S
Er375     Ce379    10.0   .     S
Er375     V381    9.999   .     S
Er376     Ce377    10.0   .     S
Er376     Ce380    10.0   .     S
Er376     V382    9.999   .     S
Ce377     Ce380    10.0   .     S
Ce377     Ti387    10.0   .     S
Ce378     Ce379    10.0   .     S
Ce379     Ti384    10.0   .     S
V381     V382    10.0   .     S
Ti383     Ti385    10.0   .     S
Ti383     Ti384    10.0   .     S
Ti384     Ti385    10.0   .     S
Ti385     Ce412    10.0   .     S
Ti386     Ce402    10.0   .     S
Ti386     Ti387    10.0   .     S
Ti386     Ti388    10.0   .     S
Ti387     Ti388    10.0   .     S
Ti388     Ce392    10.0   .     S
Er389     Ce391    10.0   .     S
Er389     Ce394    10.0   .     S
Er389     V395    9.999   .     S
Er390     Ce392    10.0   .     S
Er390     Ce393    10.0   .     S
Er390     V396    9.999   .     S
Ce391     Ce394    10.0   .     S
Ce391     Ti424    10.0   .     S
Ce392     Ce393    10.0   .     S
Ce394     Ti416    10.0   .     S
V395     V396    10.0   .     S
Ti397     Ce427    10.0   .     S
Ti397     Ti398    10.0   .     S
Ti397     Ti399    10.0   .     S
Ti398     Ce410    10.0   .     S
Ti398     Ti399    10.0   .     S
Ti399     Ce404    10.0   .     S
Er400     Ce403    10.0   .     S
Er400     Ce402    10.0   .     S
Er400     V407    9.999   .     S
Er401     Ce404    10.0   .     S
Er401     Ce405    10.0   .     S
Er401     V406    9.999   .     S
Ce402     Ce403    10.0   .     S
Ce403     Ti422    10.0   .     S
Ce404     Ce405    10.0   .     S
V406     V407    10.0   .     S
V406     V478    10.001   .     S
V406     V479    10.001   .     S
V407     V478    10.001   .     S
V407     V479    10.001   .     S
Er408     Ce411    10.0   .     S
Er408     Ce412    10.0   .     S
Er408     V414    9.999   .     S
Er409     Ce410    10.0   .     S
Er409     Ce413    10.0   .     S
Er409     V415    9.999   .     S
Ce410     Ce413    10.0   .     S
Ce411     Ce412    10.0   .     S
Ce413     Ti419    10.0   .     S
V414     V415    10.0   .     S
Ti416     Ti417    10.0   .     S
Ti416     Ti418    10.0   .     S
Ti417     Ti418    10.0   .     S
Ti418     Ce428    10.0   .     S
Ti419     Ti421    10.0   .     S
Ti419     Ti420    10.0   .     S
Ti420     Ti421    10.0   .     S
Ti421     Ce430    10.0   .     S
Ti422     Ti423    10.0   .     S
Ti422     Ti424    10.0   .     S
Ti423     Ce429    10.0   .     S
Ti423     Ti424    10.0   .     S
Er425     Ce428    10.0   .     S
Er425     Ce430    10.0   .     S
Er425     V431    9.999   .     S
Er426     Ce429    10.0   .     S
Er426     Ce427    10.0   .     S
Er426     V432    9.999   .     S
Ce427     Ce429    10.0   .     S
Ce428     Ce430    10.0   .     S
V431     V432    10.0   .     S
Ti433     Ce477    10.0   .     S
Ti433     Ti434    10.0   .     S
Ti433     Ti435    10.0   .     S
Ti434     Ce454    10.0   .     S
Ti434     Ti435    10.0   .     S
Ti435     Ce442    10.0   .     S
Ti436     Ce443    10.0   .     S
Ti436     Ti437    10.0   .     S
Ti436     Ti438    10.0   .     S
Ti437     Ce467    10.0   .     S
Ti437     Ti438    10.0   .     S
Ti438     Ce483    10.0   .     S
Er439     Ce441    10.0   1_545     S
Er439     Ce443    10.0   .     S
Er439     V445    9.999   .     S
Er440     Ce442    10.0   1_545     S
Er440     Ce444    10.0   .     S
Er440     V446    9.999   .     S
Ce441     Er439    10.0   1_565     S
Ce441     Ce443    10.0   1_565     S
Ce441     Ti458    10.0   .     S
Ce442     Er440    10.0   1_565     S
Ce442     Ce444    10.0   1_565     S
Ce443     Ce441    10.0   1_545     S
Ce444     Ce442    10.0   1_545     S
Ce444     Ti449    10.0   .     S
V445     V111    10.001   1_545     S
V445     V446    10.0   .     S
V446     V111    10.001   1_545     S
Ti447     Ce455    10.0   .     S
Ti447     Ti449    10.0   .     S
Ti447     Ti448    10.0   .     S
Ti448     Ce484    10.0   .     S
Ti448     Ti449    10.0   .     S
Er450     Ce453    10.0   1_545     S
Er450     Ce454    10.0   1_545     S
Er450     V457    9.999   .     S
Er451     Ce452    10.0   1_565     S
Er451     Ce455    10.0   1_565     S
Er451     V456    9.999   .     S
Ce452     Er451    10.0   1_545     S
Ce452     Ce455    10.0   .     S
Ce452     Ti490    10.0   .     S
Ce453     Er450    10.0   1_565     S
Ce453     Ce454    10.0   .     S
Ce453     Ti493    10.0   .     S
Ce454     Er450    10.0   1_565     S
Ce455     Er451    10.0   1_545     S
V456     V457    10.0   1_565     S
V456     V512    10.001   1_565     S
V456     V511    10.001   1_565     S
V457     V456    10.0   1_545     S
V457     V512    10.001   .     S
V457     V511    10.001   .     S
Ti458     Ti460    10.0   .     S
Ti458     Ti459    10.0   .     S
Ti459     Ce468    10.0   .     S
Ti459     Ti460    10.0   .     S
Ti460     Ce474    10.0   .     S
Ti461     Ce499    10.0   .     S
Ti461     Ti463    10.0   .     S
Ti461     Ti462    10.0   .     S
Ti462     Ce469    10.0   .     S
Ti462     Ti463    10.0   .     S
Ti463     Ce482    10.0   .     S
Er464     Ce467    10.0   1_565     S
Er464     Ce469    10.0   1_565     S
Er464     V471    9.999   .     S
Er465     Ce468    10.0   1_545     S
Er465     Ce466    10.0   1_545     S
Er465     V470    9.999   .     S
Ce466     Er465    10.0   1_565     S
Ce466     Ce468    10.0   .     S
Ce466     Ti496    10.0   .     S
Ce467     Er464    10.0   1_545     S
Ce467     Ce469    10.0   .     S
Ce468     Er465    10.0   1_565     S
Ce469     Er464    10.0   1_545     S
V470     V471    10.0   1_545     S
V470     V526    10.001   .     S
V470     V525    10.001   .     S
V471     V470    10.0   1_565     S
V471     V526    10.001   1_565     S
V471     V525    10.001   1_565     S
Er472     Ce474    10.0   .     S
Er472     Ce477    10.0   .     S
Er472     V478    9.999   .     S
Er473     Ce476    10.0   .     S
Er473     Ce475    10.0   .     S
Er473     V479    9.999   .     S
Ce474     Ce477    10.0   .     S
Ce475     Ce476    10.0   .     S
Ce475     Ti491    10.0   .     S
Ce476     Ti495    10.0   .     S
V478     V479    10.0   .     S
Er480     Ce482    10.0   .     S
Er480     Ce485    10.0   .     S
Er480     V486    9.999   .     S
Er481     Ce483    10.0   .     S
Er481     Ce484    10.0   .     S
Er481     V487    9.999   .     S
Ce482     Ce485    10.0   .     S
Ce483     Ce484    10.0   .     S
Ce485     Ti489    10.0   .     S
V486     V487    10.0   .     S
Ti488     Ce500    10.0   .     S
Ti488     Ti489    10.0   .     S
Ti488     Ti490    10.0   .     S
Ti489     Ti490    10.0   .     S
Ti491     Ti492    10.0   .     S
Ti491     Ti493    10.0   .     S
Ti492     Ce501    10.0   .     S
Ti492     Ti493    10.0   .     S
Ti494     Ce502    10.0   .     S
Ti494     Ti496    10.0   .     S
Ti494     Ti495    10.0   .     S
Ti495     Ti496    10.0   .     S
Er497     Ce502    10.0   1_545     S
Er497     Ce499    10.0   .     S
Er497     V503    9.999   .     S
Er498     Ce501    10.0   1_545     S
Er498     Ce500    10.0   .     S
Er498     V504    9.999   .     S
Ce499     Ce502    10.0   1_545     S
Ce500     Ce501    10.0   1_545     S
Ce501     Er498    10.0   1_565     S
Ce501     Ce500    10.0   1_565     S
Ce502     Er497    10.0   1_565     S
Ce502     Ce499    10.0   1_565     S
V503     V133    10.001   1_545     S
V503     V504    10.0   .     S
V504     V133    10.001   1_545     S
Er505     Ce508    10.0   1_545     S
Er505     Ce509    10.0   .     S
Er505     V512    9.999   .     S
Er506     Ce507    10.0   1_545     S
Er506     Ce510    10.0   .     S
Er506     V511    9.999   .     S
Ce507     Er506    10.0   1_565     S
Ce507     Ce510    10.0   1_565     S
Ce507     Ti531    10.0   .     S
Ce508     Er505    10.0   1_565     S
Ce508     Ce509    10.0   1_565     S
Ce508     Ti514    10.0   .     S
Ce509     Ce508    10.0   1_545     S
Ce509     Ti566    10.0   .     S
Ce510     Ce507    10.0   1_545     S
Ce510     Ti527    10.0   .     S
V511     V456    10.001   1_545     S
V511     V512    10.0   .     S
V512     V456    10.001   1_545     S
Ti513     Ce572    10.0   .     S
Ti513     Ti515    10.0   .     S
Ti513     Ti514    10.0   .     S
Ti514     Ti515    10.0   .     S
Ti515     Ce551    10.0   .     S
Ti516     Ce521    10.0   .     S
Ti516     Ti518    10.0   .     S
Ti516     Ti517    10.0   .     S
Ti517     Ce571    10.0   .     S
Ti517     Ti518    10.0   .     S
Ti518     Ce563    10.0   .     S
Er519     Ce523    10.0   .     S
Er519     Ce524    10.0   1_545     S
Er519     V526    9.999   .     S
Er520     Ce521    10.0   .     S
Er520     Ce522    10.0   1_545     S
Er520     V525    9.999   .     S
Ce521     Ce522    10.0   1_545     S
Ce522     Er520    10.0   1_565     S
Ce522     Ce521    10.0   1_565     S
Ce522     Ti556    10.0   .     S
Ce523     Ce524    10.0   1_545     S
Ce523     Ti534    10.0   .     S
Ce524     Er519    10.0   1_565     S
Ce524     Ce523    10.0   1_565     S
Ce524     Ti537    10.0   .     S
V525     V471    10.001   1_545     S
V525     V526    10.0   .     S
V526     V471    10.001   1_545     S
Ti527     Ti528    10.0   .     S
Ti527     Ti529    10.0   .     S
Ti528     Ce541    10.0   .     S
Ti528     Ti529    10.0   .     S
Ti529     Ce562    10.0   .     S
Ti530     Ce543    10.0   .     S
Ti530     Ti532    10.0   .     S
Ti530     Ti531    10.0   .     S
Ti531     Ti532    10.0   .     S
Ti532     Ce549    10.0   .     S
Ti533     Ce542    10.0   .     S
Ti533     Ti534    10.0   .     S
Ti533     Ti535    10.0   .     S
Ti534     Ti535    10.0   .     S
Ti535     Ce560    10.0   .     S
Ti536     Ce544    10.0   .     S
Ti536     Ti538    10.0   .     S
Ti536     Ti537    10.0   .     S
Ti537     Ti538    10.0   .     S
Ti538     Ce552    10.0   .     S
Er539     Ce541    10.0   1_565     S
Er539     Ce542    10.0   1_465     S
Er539     V546    9.999   .     S
Er540     Ce543    10.0   1_545     S
Er540     Ce544    10.0   1_445     S
Er540     V545    9.999   .     S
Ce541     Er539    10.0   1_545     S
Ce541     Ce542    10.0   1_455     S
Ce542     Er539    10.0   1_645     S
Ce542     Ce541    10.0   1_655     S
Ce543     Er540    10.0   1_565     S
Ce543     Ce544    10.0   1_455     S
Ce544     Er540    10.0   1_665     S
Ce544     Ce543    10.0   1_655     S
V545     V50    10.001   1_455     S
V545     V546    10.0   1_545     S
V546     V49    10.001   1_565     S
V546     V50    10.001   1_465     S
V546     V545    10.0   1_565     S
Er547     Ce552    10.0   1_455     S
Er547     Ce550    10.0   1_455     S
Er547     V553    9.999   .     S
Er548     Ce549    10.0   1_655     S
Er548     Ce551    10.0   1_655     S
Er548     V554    9.999   .     S
Ce549     Er548    10.0   1_455     S
Ce549     Ce551    10.0   .     S
Ce550     Er547    10.0   1_655     S
Ce550     Ce552    10.0   .     S
Ce550     Ti555    10.0   .     S
Ce551     Er548    10.0   1_455     S
Ce552     Er547    10.0   1_655     S
V553     V554    10.0   1_455     S
V554     V240    10.001   1_655     S
V554     V241    10.001   1_655     S
V554     V553    10.0   1_655     S
Ti555     Ti557    10.0   .     S
Ti555     Ti556    10.0   .     S
Ti556     Ti557    10.0   .     S
Ti557     Ce573    10.0   .     S
Er558     Ce560    10.0   1_455     S
Er558     Ce563    10.0   1_455     S
Er558     V564    9.999   .     S
Er559     Ce562    10.0   1_655     S
Er559     Ce561    10.0   1_655     S
Er559     V565    9.999   .     S
Ce560     Er558    10.0   1_655     S
Ce560     Ce563    10.0   .     S
Ce561     Er559    10.0   1_455     S
Ce561     Ce562    10.0   .     S
Ce561     Ti567    10.0   .     S
Ce562     Er559    10.0   1_455     S
Ce563     Er558    10.0   1_655     S
V564     V565    10.0   1_455     S
V565     V249    10.001   1_655     S
V565     V248    10.001   1_655     S
V565     V564    10.0   1_655     S
Ti566     Ti568    10.0   .     S
Ti566     Ti567    10.0   .     S
Ti567     Ti568    10.0   .     S
Ti568     Ce574    10.0   .     S
Er569     Ce574    10.0   1_565     S
Er569     Ce571    10.0   1_465     S
Er569     V576    9.999   .     S
Er570     Ce572    10.0   1_545     S
Er570     Ce573    10.0   1_445     S
Er570     V575    9.999   .     S
Ce571     Er569    10.0   1_645     S
Ce571     Ce574    10.0   1_655     S
Ce572     Er570    10.0   1_565     S
Ce572     Ce573    10.0   1_455     S
Ce573     Er570    10.0   1_665     S
Ce573     Ce572    10.0   1_655     S
Ce574     Er569    10.0   1_545     S
Ce574     Ce571    10.0   1_455     S
V575     V72    10.001   1_455     S
V575     V576    10.0   1_545     S
V576     V72    10.001   1_465     S
V576     V71    10.001   1_565     S
V576     V575    10.0   1_565     S
