data_tsc
_audit_creation_date              2020-02-02
_audit_creation_method            'Pymatgen'
_symmetry_space_group_name_H-M    'P1'
_symmetry_Int_Tables_number       1
loop_
_symmetry_equiv_pos_as_xyz
  x,y,z
_cell_length_a                    99.6625
_cell_length_b                    99.6625
_cell_length_c                    99.6625
_cell_angle_alpha                 90.0
_cell_angle_beta                 90.0
_cell_angle_gamma                 90.0
loop_
_atom_site_label
_atom_site_type_symbol
_atom_site_fract_x
_atom_site_fract_y
_atom_site_fract_z
V1     V     0.321   0.25   0.1081
V2     V     0.3919   0.25   0.179
V3     V     0.321   0.3919   0.25
V4     V     0.3919   0.321   0.25
V5     V     0.25   0.321   0.1081
V6     V     0.25   0.3919   0.179
V7     V     0.25   0.1081   0.321
V8     V     0.25   0.179   0.3919
V9     V     0.3919   0.25   0.321
V10     V     0.321   0.25   0.3919
V11     V     0.321   0.1081   0.25
V12     V     0.3919   0.179   0.25
V13     V     0.25   0.3919   0.321
V14     V     0.25   0.321   0.3919
V15     V     0.1081   0.321   0.25
V16     V     0.179   0.3919   0.25
V17     V     0.1081   0.25   0.321
V18     V     0.179   0.25   0.3919
V19     V     0.25   0.1081   0.179
V20     V     0.25   0.179   0.1081
V21     V     0.1081   0.25   0.179
V22     V     0.179   0.25   0.1081
V23     V     0.1081   0.179   0.25
V24     V     0.179   0.1081   0.25
V25     V     0.321   0.8919   0.25
V26     V     0.3919   0.821   0.25
V27     V     0.25   0.8919   0.321
V28     V     0.25   0.821   0.3919
V29     V     0.179   0.8919   0.25
V30     V     0.1081   0.821   0.25
V31     V     0.25   0.8919   0.179
V32     V     0.25   0.821   0.1081
V33     V     0.3919   0.75   0.179
V34     V     0.3919   0.679   0.25
V35     V     0.3919   0.75   0.321
V36     V     0.179   0.75   0.3919
V37     V     0.25   0.679   0.3919
V38     V     0.321   0.75   0.3919
V39     V     0.179   0.75   0.1081
V40     V     0.25   0.679   0.1081
V41     V     0.321   0.75   0.1081
V42     V     0.1081   0.679   0.25
V43     V     0.1081   0.75   0.321
V44     V     0.1081   0.75   0.179
V45     V     0.321   0.6081   0.25
V46     V     0.25   0.6081   0.179
V47     V     0.179   0.6081   0.25
V48     V     0.25   0.6081   0.321
V49     V     0.25   0.321   0.8919
V50     V     0.25   0.3919   0.821
V51     V     0.321   0.25   0.8919
V52     V     0.3919   0.25   0.821
V53     V     0.25   0.179   0.8919
V54     V     0.25   0.1081   0.821
V55     V     0.179   0.25   0.8919
V56     V     0.1081   0.25   0.821
V57     V     0.3919   0.179   0.75
V58     V     0.3919   0.25   0.679
V59     V     0.3919   0.321   0.75
V60     V     0.179   0.3919   0.75
V61     V     0.25   0.3919   0.679
V62     V     0.321   0.3919   0.75
V63     V     0.179   0.1081   0.75
V64     V     0.25   0.1081   0.679
V65     V     0.321   0.1081   0.75
V66     V     0.1081   0.25   0.679
V67     V     0.1081   0.321   0.75
V68     V     0.1081   0.179   0.75
V69     V     0.25   0.179   0.6081
V70     V     0.321   0.25   0.6081
V71     V     0.179   0.25   0.6081
V72     V     0.25   0.321   0.6081
V73     V     0.8919   0.179   0.25
V74     V     0.821   0.1081   0.25
V75     V     0.8919   0.25   0.179
V76     V     0.821   0.25   0.1081
V77     V     0.8919   0.321   0.25
V78     V     0.821   0.3919   0.25
V79     V     0.8919   0.25   0.321
V80     V     0.821   0.25   0.3919
V81     V     0.75   0.3919   0.179
V82     V     0.679   0.3919   0.25
V83     V     0.75   0.3919   0.321
V84     V     0.75   0.179   0.3919
V85     V     0.679   0.25   0.3919
V86     V     0.75   0.321   0.3919
V87     V     0.75   0.179   0.1081
V88     V     0.679   0.25   0.1081
V89     V     0.75   0.321   0.1081
V90     V     0.75   0.1081   0.179
V91     V     0.679   0.1081   0.25
V92     V     0.75   0.1081   0.321
V93     V     0.6081   0.25   0.179
V94     V     0.6081   0.321   0.25
V95     V     0.6081   0.25   0.321
V96     V     0.6081   0.179   0.25
Er97     Er     0.6211   0.9498   0.1921
Er98     Er     0.6921   0.9498   0.1211
Er99     Er     0.6921   0.8789   0.0502
Er100     Er     0.6211   0.8079   0.0502
Er101     Er     0.5502   0.8079   0.1211
Er102     Er     0.5502   0.8789   0.1921
Er103     Er     0.6211   0.0502   0.1921
Er104     Er     0.6921   0.0502   0.1211
Er105     Er     0.6211   0.1921   0.0502
Er106     Er     0.6921   0.1211   0.0502
Er107     Er     0.5502   0.1921   0.1211
Er108     Er     0.5502   0.1211   0.1921
Er109     Er     0.5502   0.8079   0.8789
Er110     Er     0.5502   0.8789   0.8079
Er111     Er     0.6921   0.9498   0.8789
Er112     Er     0.6211   0.9498   0.8079
Er113     Er     0.6921   0.8789   0.9498
Er114     Er     0.6211   0.8079   0.9498
Er115     Er     0.6211   0.1921   0.9498
Er116     Er     0.6921   0.1211   0.9498
Er117     Er     0.6921   0.0502   0.8789
Er118     Er     0.6211   0.0502   0.8079
Er119     Er     0.5502   0.1211   0.8079
Er120     Er     0.5502   0.1921   0.8789
Er121     Er     0.4498   0.8079   0.8789
Er122     Er     0.4498   0.8789   0.8079
Er123     Er     0.3789   0.8079   0.9498
Er124     Er     0.3079   0.8789   0.9498
Er125     Er     0.3789   0.9498   0.8079
Er126     Er     0.3079   0.9498   0.8789
Er127     Er     0.3789   0.9498   0.1921
Er128     Er     0.3079   0.9498   0.1211
Er129     Er     0.4498   0.8079   0.1211
Er130     Er     0.4498   0.8789   0.1921
Er131     Er     0.3789   0.8079   0.0502
Er132     Er     0.3079   0.8789   0.0502
Er133     Er     0.3789   0.1921   0.9498
Er134     Er     0.3079   0.1211   0.9498
Er135     Er     0.4498   0.1211   0.8079
Er136     Er     0.4498   0.1921   0.8789
Er137     Er     0.3789   0.0502   0.8079
Er138     Er     0.3079   0.0502   0.8789
Er139     Er     0.3789   0.0502   0.1921
Er140     Er     0.3079   0.0502   0.1211
Er141     Er     0.3789   0.1921   0.0502
Er142     Er     0.3079   0.1211   0.0502
Er143     Er     0.4498   0.1921   0.1211
Er144     Er     0.4498   0.1211   0.1921
Er145     Er     0.9498   0.1921   0.6211
Er146     Er     0.9498   0.1211   0.6921
Er147     Er     0.8789   0.0502   0.6921
Er148     Er     0.8079   0.0502   0.6211
Er149     Er     0.8079   0.1211   0.5502
Er150     Er     0.8789   0.1921   0.5502
Er151     Er     0.0502   0.1921   0.6211
Er152     Er     0.0502   0.1211   0.6921
Er153     Er     0.1921   0.0502   0.6211
Er154     Er     0.1211   0.0502   0.6921
Er155     Er     0.1921   0.1211   0.5502
Er156     Er     0.1211   0.1921   0.5502
Er157     Er     0.8079   0.8789   0.5502
Er158     Er     0.8789   0.8079   0.5502
Er159     Er     0.9498   0.8789   0.6921
Er160     Er     0.9498   0.8079   0.6211
Er161     Er     0.8789   0.9498   0.6921
Er162     Er     0.8079   0.9498   0.6211
Er163     Er     0.1921   0.9498   0.6211
Er164     Er     0.1211   0.9498   0.6921
Er165     Er     0.0502   0.8789   0.6921
Er166     Er     0.0502   0.8079   0.6211
Er167     Er     0.1211   0.8079   0.5502
Er168     Er     0.1921   0.8789   0.5502
Er169     Er     0.8079   0.8789   0.4498
Er170     Er     0.8789   0.8079   0.4498
Er171     Er     0.9498   0.8079   0.3789
Er172     Er     0.9498   0.8789   0.3079
Er173     Er     0.8079   0.9498   0.3789
Er174     Er     0.8789   0.9498   0.3079
Er175     Er     0.9498   0.1921   0.3789
Er176     Er     0.9498   0.1211   0.3079
Er177     Er     0.8079   0.1211   0.4498
Er178     Er     0.8789   0.1921   0.4498
Er179     Er     0.8079   0.0502   0.3789
Er180     Er     0.8789   0.0502   0.3079
Er181     Er     0.1921   0.9498   0.3789
Er182     Er     0.1211   0.9498   0.3079
Er183     Er     0.1211   0.8079   0.4498
Er184     Er     0.1921   0.8789   0.4498
Er185     Er     0.0502   0.8079   0.3789
Er186     Er     0.0502   0.8789   0.3079
Er187     Er     0.0502   0.1921   0.3789
Er188     Er     0.0502   0.1211   0.3079
Er189     Er     0.1921   0.0502   0.3789
Er190     Er     0.1211   0.0502   0.3079
Er191     Er     0.1921   0.1211   0.4498
Er192     Er     0.1211   0.1921   0.4498
V193     V     0.75   0.6081   0.821
V194     V     0.679   0.75   0.8919
V195     V     0.75   0.679   0.8919
V196     V     0.6081   0.75   0.821
V197     V     0.821   0.75   0.6081
V198     V     0.8919   0.679   0.75
V199     V     0.8919   0.75   0.679
V200     V     0.821   0.6081   0.75
V201     V     0.75   0.6081   0.679
V202     V     0.679   0.6081   0.75
V203     V     0.679   0.75   0.6081
V204     V     0.75   0.679   0.6081
V205     V     0.6081   0.75   0.679
V206     V     0.6081   0.679   0.75
V207     V     0.75   0.821   0.6081
V208     V     0.75   0.8919   0.679
V209     V     0.679   0.8919   0.75
V210     V     0.6081   0.821   0.75
V211     V     0.75   0.8919   0.821
V212     V     0.75   0.821   0.8919
V213     V     0.8919   0.821   0.75
V214     V     0.821   0.8919   0.75
V215     V     0.8919   0.75   0.821
V216     V     0.821   0.75   0.8919
Er217     Er     0.8079   0.4498   0.8789
Er218     Er     0.8789   0.4498   0.8079
Er219     Er     0.8079   0.3789   0.9498
Er220     Er     0.8789   0.3079   0.9498
Er221     Er     0.9498   0.3789   0.8079
Er222     Er     0.9498   0.3079   0.8789
Er223     Er     0.1921   0.3789   0.9498
Er224     Er     0.1211   0.3079   0.9498
Er225     Er     0.1211   0.4498   0.8079
Er226     Er     0.1921   0.4498   0.8789
Er227     Er     0.0502   0.3789   0.8079
Er228     Er     0.0502   0.3079   0.8789
Er229     Er     0.1921   0.3789   0.0502
Er230     Er     0.1211   0.3079   0.0502
Er231     Er     0.0502   0.3789   0.1921
Er232     Er     0.0502   0.3079   0.1211
Er233     Er     0.1921   0.4498   0.1211
Er234     Er     0.1211   0.4498   0.1921
Er235     Er     0.9498   0.3789   0.1921
Er236     Er     0.9498   0.3079   0.1211
Er237     Er     0.8079   0.4498   0.1211
Er238     Er     0.8789   0.4498   0.1921
Er239     Er     0.8079   0.3789   0.0502
Er240     Er     0.8789   0.3079   0.0502
Er241     Er     0.1921   0.6211   0.9498
Er242     Er     0.1211   0.6921   0.9498
Er243     Er     0.0502   0.6921   0.8789
Er244     Er     0.0502   0.6211   0.8079
Er245     Er     0.1211   0.5502   0.8079
Er246     Er     0.1921   0.5502   0.8789
Er247     Er     0.1921   0.6211   0.0502
Er248     Er     0.1211   0.6921   0.0502
Er249     Er     0.0502   0.6211   0.1921
Er250     Er     0.0502   0.6921   0.1211
Er251     Er     0.1921   0.5502   0.1211
Er252     Er     0.1211   0.5502   0.1921
Er253     Er     0.8079   0.5502   0.8789
Er254     Er     0.8789   0.5502   0.8079
Er255     Er     0.8789   0.6921   0.9498
Er256     Er     0.8079   0.6211   0.9498
Er257     Er     0.9498   0.6211   0.8079
Er258     Er     0.9498   0.6921   0.8789
Er259     Er     0.9498   0.6211   0.1921
Er260     Er     0.9498   0.6921   0.1211
Er261     Er     0.8789   0.6921   0.0502
Er262     Er     0.8079   0.6211   0.0502
Er263     Er     0.8079   0.5502   0.1211
Er264     Er     0.8789   0.5502   0.1921
V265     V     0.25   0.8919   0.821
V266     V     0.25   0.821   0.8919
V267     V     0.321   0.75   0.8919
V268     V     0.179   0.75   0.8919
V269     V     0.1081   0.75   0.821
V270     V     0.25   0.679   0.8919
V271     V     0.3919   0.75   0.821
V272     V     0.25   0.6081   0.821
V273     V     0.321   0.8919   0.75
V274     V     0.179   0.8919   0.75
V275     V     0.1081   0.821   0.75
V276     V     0.25   0.8919   0.679
V277     V     0.3919   0.821   0.75
V278     V     0.25   0.821   0.6081
V279     V     0.3919   0.75   0.679
V280     V     0.3919   0.679   0.75
V281     V     0.179   0.6081   0.75
V282     V     0.25   0.6081   0.679
V283     V     0.321   0.6081   0.75
V284     V     0.1081   0.75   0.679
V285     V     0.1081   0.679   0.75
V286     V     0.321   0.75   0.6081
V287     V     0.25   0.679   0.6081
V288     V     0.179   0.75   0.6081
V289     V     0.821   0.25   0.8919
V290     V     0.8919   0.25   0.821
V291     V     0.8919   0.321   0.75
V292     V     0.8919   0.179   0.75
V293     V     0.821   0.1081   0.75
V294     V     0.8919   0.25   0.679
V295     V     0.821   0.3919   0.75
V296     V     0.821   0.25   0.6081
V297     V     0.75   0.321   0.8919
V298     V     0.75   0.179   0.8919
V299     V     0.75   0.1081   0.821
V300     V     0.679   0.25   0.8919
V301     V     0.75   0.3919   0.821
V302     V     0.6081   0.25   0.821
V303     V     0.75   0.3919   0.679
V304     V     0.679   0.3919   0.75
V305     V     0.6081   0.179   0.75
V306     V     0.6081   0.25   0.679
V307     V     0.6081   0.321   0.75
V308     V     0.75   0.1081   0.679
V309     V     0.679   0.1081   0.75
V310     V     0.75   0.321   0.6081
V311     V     0.679   0.25   0.6081
V312     V     0.75   0.179   0.6081
V313     V     0.8919   0.821   0.25
V314     V     0.821   0.8919   0.25
V315     V     0.75   0.679   0.3919
V316     V     0.679   0.75   0.3919
V317     V     0.6081   0.75   0.179
V318     V     0.6081   0.679   0.25
V319     V     0.6081   0.75   0.321
V320     V     0.75   0.679   0.1081
V321     V     0.679   0.75   0.1081
V322     V     0.75   0.6081   0.321
V323     V     0.679   0.6081   0.25
V324     V     0.75   0.6081   0.179
V325     V     0.75   0.8919   0.321
V326     V     0.75   0.8919   0.179
V327     V     0.75   0.821   0.1081
V328     V     0.679   0.8919   0.25
V329     V     0.75   0.821   0.3919
V330     V     0.6081   0.821   0.25
V331     V     0.8919   0.75   0.321
V332     V     0.8919   0.75   0.179
V333     V     0.821   0.75   0.1081
V334     V     0.8919   0.679   0.25
V335     V     0.821   0.75   0.3919
V336     V     0.821   0.6081   0.25
Er337     Er     0.4498   0.3789   0.3079
Er338     Er     0.4498   0.3079   0.3789
Er339     Er     0.3789   0.3079   0.4498
Er340     Er     0.3079   0.3789   0.4498
Er341     Er     0.3789   0.4498   0.3079
Er342     Er     0.3079   0.4498   0.3789
Er343     Er     0.4498   0.6921   0.3789
Er344     Er     0.4498   0.6211   0.3079
Er345     Er     0.3079   0.6211   0.4498
Er346     Er     0.3789   0.6921   0.4498
Er347     Er     0.3789   0.5502   0.3079
Er348     Er     0.3079   0.5502   0.3789
Er349     Er     0.4498   0.6211   0.6921
Er350     Er     0.4498   0.6921   0.6211
Er351     Er     0.3789   0.6921   0.5502
Er352     Er     0.3079   0.6211   0.5502
Er353     Er     0.3079   0.5502   0.6211
Er354     Er     0.3789   0.5502   0.6921
Er355     Er     0.3079   0.4498   0.6211
Er356     Er     0.3789   0.4498   0.6921
Er357     Er     0.4498   0.3079   0.6211
Er358     Er     0.4498   0.3789   0.6921
Er359     Er     0.3079   0.3789   0.5502
Er360     Er     0.3789   0.3079   0.5502
Er361     Er     0.6921   0.3789   0.4498
Er362     Er     0.6211   0.3079   0.4498
Er363     Er     0.6921   0.4498   0.3789
Er364     Er     0.6211   0.4498   0.3079
Er365     Er     0.5502   0.3079   0.3789
Er366     Er     0.5502   0.3789   0.3079
Er367     Er     0.6211   0.4498   0.6921
Er368     Er     0.6921   0.4498   0.6211
Er369     Er     0.5502   0.3789   0.6921
Er370     Er     0.6921   0.3789   0.5502
Er371     Er     0.5502   0.3079   0.6211
Er372     Er     0.6211   0.3079   0.5502
Er373     Er     0.5502   0.6211   0.6921
Er374     Er     0.5502   0.6921   0.6211
Er375     Er     0.6211   0.5502   0.6921
Er376     Er     0.6921   0.5502   0.6211
Er377     Er     0.6211   0.6921   0.5502
Er378     Er     0.6921   0.6211   0.5502
Er379     Er     0.6211   0.6921   0.4498
Er380     Er     0.6921   0.6211   0.4498
Er381     Er     0.5502   0.6921   0.3789
Er382     Er     0.6921   0.5502   0.3789
Er383     Er     0.5502   0.6211   0.3079
Er384     Er     0.6211   0.5502   0.3079
loop_
_geom_bond_atom_site_label_1
_geom_bond_atom_site_label_2
_geom_bond_distance
_geom_bond_site_symmetry_2
_ccdc_geom_bond_type
V1     V2    10.0   .     S
V1     V5    10.0   .     S
V1     V20    10.0   .     S
V1     Er141    10.0   .     S
V2     V4    10.0   .     S
V2     V12    10.0   .     S
V2     Er143    10.0   .     S
V3     V4    10.0   .     S
V3     V6    10.0   .     S
V3     V13    10.0   .     S
V3     Er341    10.0   .     S
V4     V9    10.0   .     S
V4     Er337    10.0   .     S
V5     V6    10.0   .     S
V5     V22    10.0   .     S
V5     Er229    10.0   .     S
V6     V16    10.0   .     S
V6     Er233    10.0   .     S
V7     V8    10.0   .     S
V7     V11    10.0   .     S
V7     V24    10.0   .     S
V7     Er189    10.0   .     S
V8     V10    10.0   .     S
V8     V18    10.0   .     S
V8     Er191    10.0   .     S
V9     V10    10.0   .     S
V9     V12    10.0   .     S
V9     Er338    10.0   .     S
V10     V14    10.0   .     S
V10     Er339    10.0   .     S
V11     V12    10.0   .     S
V11     V19    10.0   .     S
V11     Er139    10.0   .     S
V12     Er144    10.0   .     S
V13     V14    10.0   .     S
V13     V16    10.0   .     S
V13     Er342    10.0   .     S
V14     V18    10.0   .     S
V14     Er340    10.0   .     S
V15     V16    10.0   .     S
V15     V17    10.0   .     S
V15     V21    10.0   .     S
V15     Er231    10.0   .     S
V16     Er234    10.0   .     S
V17     V18    10.0   .     S
V17     V23    10.0   .     S
V17     Er187    10.0   .     S
V18     Er192    10.0   .     S
V19     V20    10.0   .     S
V19     V24    10.0   .     S
V19     Er140    10.0   .     S
V20     V22    10.0   .     S
V20     Er142    10.0   .     S
V21     V22    10.0   .     S
V21     V23    10.0   .     S
V21     Er232    10.0   .     S
V22     Er230    10.0   .     S
V23     V24    10.0   .     S
V23     Er188    10.0   .     S
V24     Er190    10.0   .     S
V25     V26    10.0   .     S
V25     V27    10.0   .     S
V25     V31    10.0   .     S
V25     Er127    10.0   .     S
V26     V35    10.0   .     S
V26     V33    10.0   .     S
V26     Er130    10.0   .     S
V27     V28    10.0   .     S
V27     V29    10.0   .     S
V27     Er181    10.0   .     S
V28     V38    10.0   .     S
V28     V36    10.0   .     S
V28     Er184    10.0   .     S
V29     V30    10.0   .     S
V29     V31    10.0   .     S
V29     Er182    10.0   .     S
V30     V44    10.0   .     S
V30     V43    10.0   .     S
V30     Er186    10.0   .     S
V31     V32    10.0   .     S
V31     Er128    10.0   .     S
V32     V39    10.0   .     S
V32     V41    10.0   .     S
V32     Er132    10.0   .     S
V33     V34    10.0   .     S
V33     V41    10.0   .     S
V33     Er129    10.0   .     S
V34     V35    10.0   .     S
V34     V45    10.0   .     S
V34     Er344    10.0   .     S
V35     V38    10.0   .     S
V35     Er343    10.0   .     S
V36     V37    10.0   .     S
V36     V43    10.0   .     S
V36     Er183    10.0   .     S
V37     V38    10.0   .     S
V37     V48    10.0   .     S
V37     Er345    10.0   .     S
V38     Er346    10.0   .     S
V39     V40    10.0   .     S
V39     V44    10.0   .     S
V39     Er248    10.0   .     S
V40     V41    10.0   .     S
V40     V46    10.0   .     S
V40     Er247    10.0   .     S
V41     Er131    10.0   .     S
V42     V43    10.0   .     S
V42     V44    10.0   .     S
V42     V47    10.0   .     S
V42     Er249    10.0   .     S
V43     Er185    10.0   .     S
V44     Er250    10.0   .     S
V45     V46    10.0   .     S
V45     V48    10.0   .     S
V45     Er347    10.0   .     S
V46     V47    10.0   .     S
V46     Er251    10.0   .     S
V47     V48    10.0   .     S
V47     Er252    10.0   .     S
V48     Er348    10.0   .     S
V49     V50    10.0   .     S
V49     V51    10.0   .     S
V49     V55    10.0   .     S
V49     Er223    10.0   .     S
V50     V60    10.0   .     S
V50     V62    10.0   .     S
V50     Er226    10.0   .     S
V51     V52    10.0   .     S
V51     V53    10.0   .     S
V51     Er133    10.0   .     S
V52     V59    10.0   .     S
V52     V57    10.0   .     S
V52     Er136    10.0   .     S
V53     V54    10.0   .     S
V53     V55    10.0   .     S
V53     Er134    10.0   .     S
V54     V63    10.0   .     S
V54     V65    10.0   .     S
V54     Er138    10.0   .     S
V55     V56    10.0   .     S
V55     Er224    10.0   .     S
V56     V67    10.0   .     S
V56     V68    10.0   .     S
V56     Er228    10.0   .     S
V57     V58    10.0   .     S
V57     V65    10.0   .     S
V57     Er135    10.0   .     S
V58     V59    10.0   .     S
V58     V70    10.0   .     S
V58     Er357    10.0   .     S
V59     V62    10.0   .     S
V59     Er358    10.0   .     S
V60     V61    10.0   .     S
V60     V67    10.0   .     S
V60     Er225    10.0   .     S
V61     V62    10.0   .     S
V61     V72    10.0   .     S
V61     Er355    10.0   .     S
V62     Er356    10.0   .     S
V63     V64    10.0   .     S
V63     V68    10.0   .     S
V63     Er154    10.0   .     S
V64     V65    10.0   .     S
V64     V69    10.0   .     S
V64     Er153    10.0   .     S
V65     Er137    10.0   .     S
V66     V67    10.0   .     S
V66     V68    10.0   .     S
V66     V71    10.0   .     S
V66     Er151    10.0   .     S
V67     Er227    10.0   .     S
V68     Er152    10.0   .     S
V69     V70    10.0   .     S
V69     V71    10.0   .     S
V69     Er155    10.0   .     S
V70     V72    10.0   .     S
V70     Er360    10.0   .     S
V71     V72    10.0   .     S
V71     Er156    10.0   .     S
V72     Er359    10.0   .     S
V73     V74    10.0   .     S
V73     V75    10.0   .     S
V73     V79    10.0   .     S
V73     Er176    10.0   .     S
V74     V90    10.0   .     S
V74     V92    10.0   .     S
V74     Er180    10.0   .     S
V75     V76    10.0   .     S
V75     V77    10.0   .     S
V75     Er236    10.0   .     S
V76     V87    10.0   .     S
V76     V89    10.0   .     S
V76     Er240    10.0   .     S
V77     V78    10.0   .     S
V77     V79    10.0   .     S
V77     Er235    10.0   .     S
V78     V81    10.0   .     S
V78     V83    10.0   .     S
V78     Er238    10.0   .     S
V79     V80    10.0   .     S
V79     Er175    10.0   .     S
V80     V86    10.0   .     S
V80     V84    10.0   .     S
V80     Er178    10.0   .     S
V81     V82    10.0   .     S
V81     V89    10.0   .     S
V81     Er237    10.0   .     S
V82     V83    10.0   .     S
V82     V94    10.0   .     S
V82     Er364    10.0   .     S
V83     V86    10.0   .     S
V83     Er363    10.0   .     S
V84     V85    10.0   .     S
V84     V92    10.0   .     S
V84     Er177    10.0   .     S
V85     V86    10.0   .     S
V85     V95    10.0   .     S
V85     Er362    10.0   .     S
V86     Er361    10.0   .     S
V87     V88    10.0   .     S
V87     V90    10.0   .     S
V87     Er106    10.0   .     S
V88     V89    10.0   .     S
V88     V93    10.0   .     S
V88     Er105    10.0   .     S
V89     Er239    10.0   .     S
V90     V91    10.0   .     S
V90     Er104    10.0   .     S
V91     V92    10.0   .     S
V91     V96    10.0   .     S
V91     Er103    10.0   .     S
V92     Er179    10.0   .     S
V93     V94    10.0   .     S
V93     V96    10.0   .     S
V93     Er107    10.0   .     S
V94     V95    10.0   .     S
V94     Er366    10.0   .     S
V95     V96    10.0   .     S
V95     Er365    10.0   .     S
V96     Er108    10.0   .     S
Er97     V328    10.0   .     S
Er97     Er102    10.0   .     S
Er97     Er98    10.0   .     S
Er97     Er103    10.0   1_565     S
Er98     V326    10.0   .     S
Er98     Er99    10.0   .     S
Er98     Er104    10.0   1_565     S
Er99     V327    10.0   .     S
Er99     Er100    10.0   .     S
Er99     Er113    10.0   1_554     S
Er100     V321    10.0   .     S
Er100     Er101    10.0   .     S
Er100     Er114    10.0   1_554     S
Er101     V317    10.0   .     S
Er101     Er102    10.0   .     S
Er101     Er129    10.0   .     S
Er102     V330    10.0   .     S
Er102     Er130    10.0   .     S
Er103     Er97    10.0   1_545     S
Er103     Er108    10.0   .     S
Er103     Er104    10.0   .     S
Er104     Er98    10.0   1_545     S
Er104     Er106    10.0   .     S
Er105     Er107    10.0   .     S
Er105     Er106    10.0   .     S
Er105     Er115    10.0   1_554     S
Er106     Er116    10.0   1_554     S
Er107     Er108    10.0   .     S
Er107     Er143    10.0   .     S
Er108     Er144    10.0   .     S
Er109     V196    10.0   .     S
Er109     Er110    10.0   .     S
Er109     Er114    10.0   .     S
Er109     Er121    10.0   .     S
Er110     V210    10.0   .     S
Er110     Er112    10.0   .     S
Er110     Er122    10.0   .     S
Er111     V211    10.0   .     S
Er111     Er112    10.0   .     S
Er111     Er113    10.0   .     S
Er111     Er117    10.0   1_565     S
Er112     V209    10.0   .     S
Er112     Er118    10.0   1_565     S
Er113     V212    10.0   .     S
Er113     Er114    10.0   .     S
Er113     Er99    10.0   1_556     S
Er114     V194    10.0   .     S
Er114     Er100    10.0   1_556     S
Er115     V300    10.0   .     S
Er115     Er120    10.0   .     S
Er115     Er116    10.0   .     S
Er115     Er105    10.0   1_556     S
Er116     V298    10.0   .     S
Er116     Er117    10.0   .     S
Er116     Er106    10.0   1_556     S
Er117     Er111    10.0   1_545     S
Er117     V299    10.0   .     S
Er117     Er118    10.0   .     S
Er118     Er112    10.0   1_545     S
Er118     V309    10.0   .     S
Er118     Er119    10.0   .     S
Er119     V305    10.0   .     S
Er119     Er120    10.0   .     S
Er119     Er135    10.0   .     S
Er120     V302    10.0   .     S
Er120     Er136    10.0   .     S
Er121     V271    10.0   .     S
Er121     Er122    10.0   .     S
Er121     Er123    10.0   .     S
Er122     V277    10.0   .     S
Er122     Er125    10.0   .     S
Er123     V267    10.0   .     S
Er123     Er124    10.0   .     S
Er123     Er131    10.0   1_556     S
Er124     V266    10.0   .     S
Er124     Er126    10.0   .     S
Er124     Er132    10.0   1_556     S
Er125     V273    10.0   .     S
Er125     Er126    10.0   .     S
Er125     Er137    10.0   1_565     S
Er126     V265    10.0   .     S
Er126     Er138    10.0   1_565     S
Er127     Er130    10.0   .     S
Er127     Er128    10.0   .     S
Er127     Er139    10.0   1_565     S
Er128     Er132    10.0   .     S
Er128     Er140    10.0   1_565     S
Er129     Er130    10.0   .     S
Er129     Er131    10.0   .     S
Er131     Er123    10.0   1_554     S
Er131     Er132    10.0   .     S
Er132     Er124    10.0   1_554     S
Er133     Er136    10.0   .     S
Er133     Er134    10.0   .     S
Er133     Er141    10.0   1_556     S
Er134     Er138    10.0   .     S
Er134     Er142    10.0   1_556     S
Er135     Er136    10.0   .     S
Er135     Er137    10.0   .     S
Er137     Er125    10.0   1_545     S
Er137     Er138    10.0   .     S
Er138     Er126    10.0   1_545     S
Er139     Er127    10.0   1_545     S
Er139     Er140    10.0   .     S
Er139     Er144    10.0   .     S
Er140     Er128    10.0   1_545     S
Er140     Er142    10.0   .     S
Er141     Er133    10.0   1_554     S
Er141     Er142    10.0   .     S
Er141     Er143    10.0   .     S
Er142     Er134    10.0   1_554     S
Er143     Er144    10.0   .     S
Er145     V294    10.0   .     S
Er145     Er150    10.0   .     S
Er145     Er146    10.0   .     S
Er145     Er151    10.0   1_655     S
Er146     V292    10.0   .     S
Er146     Er147    10.0   .     S
Er146     Er152    10.0   1_655     S
Er147     V293    10.0   .     S
Er147     Er148    10.0   .     S
Er147     Er161    10.0   1_545     S
Er148     V308    10.0   .     S
Er148     Er149    10.0   .     S
Er148     Er162    10.0   1_545     S
Er149     V312    10.0   .     S
Er149     Er150    10.0   .     S
Er149     Er177    10.0   .     S
Er150     V296    10.0   .     S
Er150     Er178    10.0   .     S
Er151     Er145    10.0   1_455     S
Er151     Er156    10.0   .     S
Er151     Er152    10.0   .     S
Er152     Er146    10.0   1_455     S
Er152     Er154    10.0   .     S
Er153     Er155    10.0   .     S
Er153     Er154    10.0   .     S
Er153     Er163    10.0   1_545     S
Er154     Er164    10.0   1_545     S
Er155     Er156    10.0   .     S
Er155     Er191    10.0   .     S
Er156     Er192    10.0   .     S
Er157     V207    10.0   .     S
Er157     Er158    10.0   .     S
Er157     Er162    10.0   .     S
Er157     Er169    10.0   .     S
Er158     V197    10.0   .     S
Er158     Er160    10.0   .     S
Er158     Er170    10.0   .     S
Er159     V213    10.0   .     S
Er159     Er160    10.0   .     S
Er159     Er161    10.0   .     S
Er159     Er165    10.0   1_655     S
Er160     V199    10.0   .     S
Er160     Er166    10.0   1_655     S
Er161     V214    10.0   .     S
Er161     Er162    10.0   .     S
Er161     Er147    10.0   1_565     S
Er162     V208    10.0   .     S
Er162     Er148    10.0   1_565     S
Er163     V276    10.0   .     S
Er163     Er168    10.0   .     S
Er163     Er164    10.0   .     S
Er163     Er153    10.0   1_565     S
Er164     V274    10.0   .     S
Er164     Er165    10.0   .     S
Er164     Er154    10.0   1_565     S
Er165     Er159    10.0   1_455     S
Er165     V275    10.0   .     S
Er165     Er166    10.0   .     S
Er166     Er160    10.0   1_455     S
Er166     V284    10.0   .     S
Er166     Er167    10.0   .     S
Er167     V288    10.0   .     S
Er167     Er168    10.0   .     S
Er167     Er183    10.0   .     S
Er168     V278    10.0   .     S
Er168     Er184    10.0   .     S
Er169     V329    10.0   .     S
Er169     Er170    10.0   .     S
Er169     Er173    10.0   .     S
Er170     V335    10.0   .     S
Er170     Er171    10.0   .     S
Er171     V331    10.0   .     S
Er171     Er172    10.0   .     S
Er171     Er185    10.0   1_655     S
Er172     V313    10.0   .     S
Er172     Er174    10.0   .     S
Er172     Er186    10.0   1_655     S
Er173     V325    10.0   .     S
Er173     Er174    10.0   .     S
Er173     Er179    10.0   1_565     S
Er174     V314    10.0   .     S
Er174     Er180    10.0   1_565     S
Er175     Er178    10.0   .     S
Er175     Er176    10.0   .     S
Er175     Er187    10.0   1_655     S
Er176     Er180    10.0   .     S
Er176     Er188    10.0   1_655     S
Er177     Er178    10.0   .     S
Er177     Er179    10.0   .     S
Er179     Er173    10.0   1_545     S
Er179     Er180    10.0   .     S
Er180     Er174    10.0   1_545     S
Er181     Er184    10.0   .     S
Er181     Er182    10.0   .     S
Er181     Er189    10.0   1_565     S
Er182     Er186    10.0   .     S
Er182     Er190    10.0   1_565     S
Er183     Er184    10.0   .     S
Er183     Er185    10.0   .     S
Er185     Er171    10.0   1_455     S
Er185     Er186    10.0   .     S
Er186     Er172    10.0   1_455     S
Er187     Er175    10.0   1_455     S
Er187     Er188    10.0   .     S
Er187     Er192    10.0   .     S
Er188     Er176    10.0   1_455     S
Er188     Er190    10.0   .     S
Er189     Er181    10.0   1_545     S
Er189     Er190    10.0   .     S
Er189     Er191    10.0   .     S
Er190     Er182    10.0   1_545     S
Er191     Er192    10.0   .     S
V193     V195    10.0   .     S
V193     V202    10.0   .     S
V193     V200    10.0   .     S
V193     Er253    10.0   .     S
V194     V195    10.0   .     S
V194     V212    10.0   .     S
V194     V196    10.0   .     S
V195     V216    10.0   .     S
V195     Er256    10.0   .     S
V196     V206    10.0   .     S
V196     V210    10.0   .     S
V197     V199    10.0   .     S
V197     V204    10.0   .     S
V197     V207    10.0   .     S
V198     V199    10.0   .     S
V198     V215    10.0   .     S
V198     V200    10.0   .     S
V198     Er257    10.0   .     S
V199     V213    10.0   .     S
V200     V201    10.0   .     S
V200     Er254    10.0   .     S
V201     V202    10.0   .     S
V201     V204    10.0   .     S
V201     Er376    10.0   .     S
V202     V206    10.0   .     S
V202     Er375    10.0   .     S
V203     V207    10.0   .     S
V203     V204    10.0   .     S
V203     V205    10.0   .     S
V203     Er377    10.0   .     S
V204     Er378    10.0   .     S
V205     V210    10.0   .     S
V205     V206    10.0   .     S
V205     Er374    10.0   .     S
V206     Er373    10.0   .     S
V207     V208    10.0   .     S
V208     V214    10.0   .     S
V208     V209    10.0   .     S
V209     V211    10.0   .     S
V209     V210    10.0   .     S
V211     V212    10.0   .     S
V211     V214    10.0   .     S
V212     V216    10.0   .     S
V213     V214    10.0   .     S
V213     V215    10.0   .     S
V215     V216    10.0   .     S
V215     Er258    10.0   .     S
V216     Er255    10.0   .     S
Er217     V301    10.0   .     S
Er217     Er218    10.0   .     S
Er217     Er219    10.0   .     S
Er217     Er253    10.0   .     S
Er218     V295    10.0   .     S
Er218     Er221    10.0   .     S
Er218     Er254    10.0   .     S
Er219     V297    10.0   .     S
Er219     Er220    10.0   .     S
Er219     Er239    10.0   1_556     S
Er220     V289    10.0   .     S
Er220     Er222    10.0   .     S
Er220     Er240    10.0   1_556     S
Er221     V291    10.0   .     S
Er221     Er222    10.0   .     S
Er221     Er227    10.0   1_655     S
Er222     V290    10.0   .     S
Er222     Er228    10.0   1_655     S
Er223     Er226    10.0   .     S
Er223     Er224    10.0   .     S
Er223     Er229    10.0   1_556     S
Er224     Er228    10.0   .     S
Er224     Er230    10.0   1_556     S
Er225     Er226    10.0   .     S
Er225     Er227    10.0   .     S
Er225     Er245    10.0   .     S
Er226     Er246    10.0   .     S
Er227     Er221    10.0   1_455     S
Er227     Er228    10.0   .     S
Er228     Er222    10.0   1_455     S
Er229     Er223    10.0   1_554     S
Er229     Er230    10.0   .     S
Er229     Er233    10.0   .     S
Er230     Er224    10.0   1_554     S
Er230     Er232    10.0   .     S
Er231     Er232    10.0   .     S
Er231     Er234    10.0   .     S
Er231     Er235    10.0   1_455     S
Er232     Er236    10.0   1_455     S
Er233     Er234    10.0   .     S
Er233     Er251    10.0   .     S
Er234     Er252    10.0   .     S
Er235     Er238    10.0   .     S
Er235     Er236    10.0   .     S
Er235     Er231    10.0   1_655     S
Er236     Er240    10.0   .     S
Er236     Er232    10.0   1_655     S
Er237     Er238    10.0   .     S
Er237     Er239    10.0   .     S
Er237     Er263    10.0   .     S
Er238     Er264    10.0   .     S
Er239     Er219    10.0   1_554     S
Er239     Er240    10.0   .     S
Er240     Er220    10.0   1_554     S
Er241     V270    10.0   .     S
Er241     Er246    10.0   .     S
Er241     Er242    10.0   .     S
Er241     Er247    10.0   1_556     S
Er242     V268    10.0   .     S
Er242     Er243    10.0   .     S
Er242     Er248    10.0   1_556     S
Er243     V269    10.0   .     S
Er243     Er244    10.0   .     S
Er243     Er258    10.0   1_455     S
Er244     V285    10.0   .     S
Er244     Er245    10.0   .     S
Er244     Er257    10.0   1_455     S
Er245     V281    10.0   .     S
Er245     Er246    10.0   .     S
Er246     V272    10.0   .     S
Er247     Er241    10.0   1_554     S
Er247     Er251    10.0   .     S
Er247     Er248    10.0   .     S
Er248     Er242    10.0   1_554     S
Er248     Er250    10.0   .     S
Er249     Er252    10.0   .     S
Er249     Er250    10.0   .     S
Er249     Er259    10.0   1_455     S
Er250     Er260    10.0   1_455     S
Er251     Er252    10.0   .     S
Er253     Er254    10.0   .     S
Er253     Er256    10.0   .     S
Er254     Er257    10.0   .     S
Er255     Er256    10.0   .     S
Er255     Er258    10.0   .     S
Er255     Er261    10.0   1_556     S
Er256     Er262    10.0   1_556     S
Er257     Er258    10.0   .     S
Er257     Er244    10.0   1_655     S
Er258     Er243    10.0   1_655     S
Er259     V334    10.0   .     S
Er259     Er264    10.0   .     S
Er259     Er260    10.0   .     S
Er259     Er249    10.0   1_655     S
Er260     V332    10.0   .     S
Er260     Er261    10.0   .     S
Er260     Er250    10.0   1_655     S
Er261     Er255    10.0   1_554     S
Er261     V333    10.0   .     S
Er261     Er262    10.0   .     S
Er262     Er256    10.0   1_554     S
Er262     V320    10.0   .     S
Er262     Er263    10.0   .     S
Er263     V324    10.0   .     S
Er263     Er264    10.0   .     S
Er264     V336    10.0   .     S
V265     V266    10.0   .     S
V265     V274    10.0   .     S
V265     V273    10.0   .     S
V266     V268    10.0   .     S
V266     V267    10.0   .     S
V267     V271    10.0   .     S
V267     V270    10.0   .     S
V268     V269    10.0   .     S
V268     V270    10.0   .     S
V269     V285    10.0   .     S
V269     V275    10.0   .     S
V270     V272    10.0   .     S
V271     V280    10.0   .     S
V271     V277    10.0   .     S
V272     V283    10.0   .     S
V272     V281    10.0   .     S
V273     V277    10.0   .     S
V273     V276    10.0   .     S
V274     V275    10.0   .     S
V274     V276    10.0   .     S
V275     V284    10.0   .     S
V276     V278    10.0   .     S
V277     V279    10.0   .     S
V278     V286    10.0   .     S
V278     V288    10.0   .     S
V279     V280    10.0   .     S
V279     V286    10.0   .     S
V279     Er350    10.0   .     S
V280     V283    10.0   .     S
V280     Er349    10.0   .     S
V281     V282    10.0   .     S
V281     V285    10.0   .     S
V282     V283    10.0   .     S
V282     V287    10.0   .     S
V282     Er353    10.0   .     S
V283     Er354    10.0   .     S
V284     V285    10.0   .     S
V284     V288    10.0   .     S
V286     V287    10.0   .     S
V286     Er351    10.0   .     S
V287     V288    10.0   .     S
V287     Er352    10.0   .     S
V289     V290    10.0   .     S
V289     V298    10.0   .     S
V289     V297    10.0   .     S
V290     V292    10.0   .     S
V290     V291    10.0   .     S
V291     V295    10.0   .     S
V291     V294    10.0   .     S
V292     V293    10.0   .     S
V292     V294    10.0   .     S
V293     V308    10.0   .     S
V293     V299    10.0   .     S
V294     V296    10.0   .     S
V295     V303    10.0   .     S
V295     V301    10.0   .     S
V296     V310    10.0   .     S
V296     V312    10.0   .     S
V297     V301    10.0   .     S
V297     V300    10.0   .     S
V298     V299    10.0   .     S
V298     V300    10.0   .     S
V299     V309    10.0   .     S
V300     V302    10.0   .     S
V301     V304    10.0   .     S
V302     V305    10.0   .     S
V302     V307    10.0   .     S
V303     V304    10.0   .     S
V303     V310    10.0   .     S
V303     Er368    10.0   .     S
V304     V307    10.0   .     S
V304     Er367    10.0   .     S
V305     V306    10.0   .     S
V305     V309    10.0   .     S
V306     V307    10.0   .     S
V306     V311    10.0   .     S
V306     Er371    10.0   .     S
V307     Er369    10.0   .     S
V308     V309    10.0   .     S
V308     V312    10.0   .     S
V310     V311    10.0   .     S
V310     Er370    10.0   .     S
V311     V312    10.0   .     S
V311     Er372    10.0   .     S
V313     V314    10.0   .     S
V313     V332    10.0   .     S
V313     V331    10.0   .     S
V314     V326    10.0   .     S
V314     V325    10.0   .     S
V315     V335    10.0   .     S
V315     V316    10.0   .     S
V315     V322    10.0   .     S
V315     Er380    10.0   .     S
V316     V329    10.0   .     S
V316     V319    10.0   .     S
V316     Er379    10.0   .     S
V317     V318    10.0   .     S
V317     V330    10.0   .     S
V317     V321    10.0   .     S
V318     V319    10.0   .     S
V318     V323    10.0   .     S
V318     Er383    10.0   .     S
V319     V330    10.0   .     S
V319     Er381    10.0   .     S
V320     V321    10.0   .     S
V320     V333    10.0   .     S
V320     V324    10.0   .     S
V321     V327    10.0   .     S
V322     V336    10.0   .     S
V322     V323    10.0   .     S
V322     Er382    10.0   .     S
V323     V324    10.0   .     S
V323     Er384    10.0   .     S
V324     V336    10.0   .     S
V325     V329    10.0   .     S
V325     V328    10.0   .     S
V326     V327    10.0   .     S
V326     V328    10.0   .     S
V327     V333    10.0   .     S
V328     V330    10.0   .     S
V329     V335    10.0   .     S
V331     V335    10.0   .     S
V331     V334    10.0   .     S
V332     V333    10.0   .     S
V332     V334    10.0   .     S
V334     V336    10.0   .     S
Er337     Er338    10.0   .     S
Er337     Er341    10.0   .     S
Er337     Er366    10.0   .     S
Er338     Er339    10.0   .     S
Er338     Er365    10.0   .     S
Er339     Er340    10.0   .     S
Er339     Er360    10.0   .     S
Er340     Er342    10.0   .     S
Er340     Er359    10.0   .     S
Er341     Er342    10.0   .     S
Er341     Er347    10.0   .     S
Er342     Er348    10.0   .     S
Er343     Er344    10.0   .     S
Er343     Er346    10.0   .     S
Er343     Er381    10.0   .     S
Er344     Er347    10.0   .     S
Er344     Er383    10.0   .     S
Er345     Er348    10.0   .     S
Er345     Er346    10.0   .     S
Er345     Er352    10.0   .     S
Er346     Er351    10.0   .     S
Er347     Er348    10.0   .     S
Er349     Er350    10.0   .     S
Er349     Er354    10.0   .     S
Er349     Er373    10.0   .     S
Er350     Er351    10.0   .     S
Er350     Er374    10.0   .     S
Er351     Er352    10.0   .     S
Er352     Er353    10.0   .     S
Er353     Er354    10.0   .     S
Er353     Er355    10.0   .     S
Er354     Er356    10.0   .     S
Er355     Er359    10.0   .     S
Er355     Er356    10.0   .     S
Er356     Er358    10.0   .     S
Er357     Er360    10.0   .     S
Er357     Er358    10.0   .     S
Er357     Er371    10.0   .     S
Er358     Er369    10.0   .     S
Er359     Er360    10.0   .     S
Er361     Er362    10.0   .     S
Er361     Er363    10.0   .     S
Er361     Er370    10.0   .     S
Er362     Er365    10.0   .     S
Er362     Er372    10.0   .     S
Er363     Er364    10.0   .     S
Er363     Er382    10.0   .     S
Er364     Er366    10.0   .     S
Er364     Er384    10.0   .     S
Er365     Er366    10.0   .     S
Er367     Er368    10.0   .     S
Er367     Er369    10.0   .     S
Er367     Er375    10.0   .     S
Er368     Er370    10.0   .     S
Er368     Er376    10.0   .     S
Er369     Er371    10.0   .     S
Er370     Er372    10.0   .     S
Er371     Er372    10.0   .     S
Er373     Er374    10.0   .     S
Er373     Er375    10.0   .     S
Er374     Er377    10.0   .     S
Er375     Er376    10.0   .     S
Er376     Er378    10.0   .     S
Er377     Er378    10.0   .     S
Er377     Er379    10.0   .     S
Er378     Er380    10.0   .     S
Er379     Er380    10.0   .     S
Er379     Er381    10.0   .     S
Er380     Er382    10.0   .     S
Er381     Er383    10.0   .     S
Er382     Er384    10.0   .     S
Er383     Er384    10.0   .     S
