data_ttt
_audit_creation_date              2020-02-02
_audit_creation_method            'Pymatgen'
_symmetry_space_group_name_H-M    'P1'
_symmetry_Int_Tables_number       1
loop_
_symmetry_equiv_pos_as_xyz
  x,y,z
_cell_length_a                    24.4949
_cell_length_b                    24.4949
_cell_length_c                    24.4949
_cell_angle_alpha                 90.0
_cell_angle_beta                 90.0
_cell_angle_gamma                 90.0
loop_
_atom_site_label
_atom_site_type_symbol
_atom_site_fract_x
_atom_site_fract_y
_atom_site_fract_z
Er1     Er     0.0   0.0   0.0
V2     V     0.1667   0.1667   0.6667
V3     V     0.6667   0.1667   0.1667
V4     V     0.1667   0.6667   0.1667
Er5     Er     0.0   0.5   0.5
V6     V     0.1667   0.8333   0.3333
V7     V     0.1667   0.3333   0.8333
V8     V     0.6667   0.3333   0.3333
Er9     Er     0.5   0.5   0.0
V10     V     0.3333   0.8333   0.1667
V11     V     0.8333   0.3333   0.1667
V12     V     0.3333   0.3333   0.6667
Er13     Er     0.5   0.0   0.5
V14     V     0.8333   0.1667   0.3333
V15     V     0.3333   0.1667   0.8333
V16     V     0.3333   0.6667   0.3333
V17     V     0.6667   0.6667   0.6667
V18     V     0.8333   0.8333   0.6667
V19     V     0.8333   0.6667   0.8333
V20     V     0.6667   0.8333   0.8333
loop_
_geom_bond_atom_site_label_1
_geom_bond_atom_site_label_2
_geom_bond_distance
_geom_bond_site_symmetry_2
_ccdc_geom_bond_type
Er1     V6    10.0   1_545     S
Er1     V10    10.0   1_545     S
Er1     V4    10.0   1_545     S
Er1     V11    10.0   1_455     S
Er1     V14    10.0   1_455     S
Er1     V3    10.0   1_455     S
Er1     V19    10.0   1_444     S
Er1     V18    10.0   1_444     S
Er1     V20    10.0   1_444     S
Er1     V7    10.0   1_554     S
Er1     V15    10.0   1_554     S
Er1     V2    10.0   1_554     S
V2     Er1    10.0   1_556     S
V2     Er5    10.0   .     S
V2     Er13    10.0   .     S
V3     Er1    10.0   1_655     S
V3     Er9    10.0   .     S
V3     Er13    10.0   .     S
V4     Er1    10.0   1_565     S
V4     Er5    10.0   .     S
V4     Er9    10.0   .     S
Er5     V18    10.0   1_455     S
Er5     V19    10.0   1_455     S
Er5     V17    10.0   1_455     S
Er5     V6    10.0   .     S
Er5     V16    10.0   .     S
Er5     V7    10.0   .     S
Er5     V12    10.0   .     S
Er5     V14    10.0   1_455     S
Er5     V11    10.0   1_455     S
Er5     V8    10.0   1_455     S
V6     Er1    10.0   1_565     S
V6     Er13    10.0   1_565     S
V7     Er1    10.0   1_556     S
V7     Er9    10.0   1_556     S
V8     Er5    10.0   1_655     S
V8     Er9    10.0   .     S
V8     Er13    10.0   .     S
Er9     V19    10.0   1_554     S
Er9     V20    10.0   1_554     S
Er9     V17    10.0   1_554     S
Er9     V10    10.0   .     S
Er9     V16    10.0   .     S
Er9     V11    10.0   .     S
Er9     V7    10.0   1_554     S
Er9     V15    10.0   1_554     S
Er9     V12    10.0   1_554     S
V10     Er1    10.0   1_565     S
V10     Er13    10.0   1_565     S
V11     Er1    10.0   1_655     S
V11     Er5    10.0   1_655     S
V12     Er9    10.0   1_556     S
V12     Er13    10.0   .     S
Er13     V18    10.0   1_545     S
Er13     V20    10.0   1_545     S
Er13     V17    10.0   1_545     S
Er13     V14    10.0   .     S
Er13     V15    10.0   .     S
Er13     V6    10.0   1_545     S
Er13     V10    10.0   1_545     S
Er13     V16    10.0   1_545     S
V14     Er1    10.0   1_655     S
V14     Er5    10.0   1_655     S
V15     Er1    10.0   1_556     S
V15     Er9    10.0   1_556     S
V16     Er13    10.0   1_565     S
V17     Er5    10.0   1_655     S
V17     Er9    10.0   1_556     S
V17     Er13    10.0   1_565     S
V18     Er1    10.0   1_666     S
V18     Er5    10.0   1_655     S
V18     Er13    10.0   1_565     S
V19     Er1    10.0   1_666     S
V19     Er5    10.0   1_655     S
V19     Er9    10.0   1_556     S
V20     Er1    10.0   1_666     S
V20     Er9    10.0   1_556     S
V20     Er13    10.0   1_565     S
