data_uca
_audit_creation_date              2020-02-02
_audit_creation_method            'Pymatgen'
_symmetry_space_group_name_H-M    'P1'
_symmetry_Int_Tables_number       1
loop_
_symmetry_equiv_pos_as_xyz
  x,y,z
_cell_length_a                    108.6754
_cell_length_b                    108.6754
_cell_length_c                    108.6754
_cell_angle_alpha                 90.0
_cell_angle_beta                 90.0
_cell_angle_gamma                 90.0
loop_
_atom_site_label
_atom_site_type_symbol
_atom_site_fract_x
_atom_site_fract_y
_atom_site_fract_z
V1     V     0.7175   0.7825   0.9539
V2     V     0.7825   0.7175   0.9539
V3     V     0.2825   0.2175   0.9539
V4     V     0.2175   0.2825   0.9539
V5     V     0.9539   0.7175   0.7825
V6     V     0.9539   0.7825   0.7175
V7     V     0.9539   0.2825   0.2175
V8     V     0.9539   0.2175   0.2825
V9     V     0.7825   0.9539   0.7175
V10     V     0.7175   0.9539   0.7825
V11     V     0.2175   0.9539   0.2825
V12     V     0.2825   0.9539   0.2175
V13     V     0.7825   0.7175   0.0461
V14     V     0.7175   0.7825   0.0461
V15     V     0.7825   0.2825   0.9539
V16     V     0.7175   0.2175   0.9539
V17     V     0.2825   0.7825   0.9539
V18     V     0.2175   0.7175   0.9539
V19     V     0.2175   0.2825   0.0461
V20     V     0.2825   0.2175   0.0461
V21     V     0.7175   0.0461   0.7825
V22     V     0.7825   0.0461   0.7175
V23     V     0.2825   0.9539   0.7825
V24     V     0.2175   0.9539   0.7175
V25     V     0.7825   0.9539   0.2825
V26     V     0.7175   0.9539   0.2175
V27     V     0.2825   0.0461   0.2175
V28     V     0.2175   0.0461   0.2825
V29     V     0.9539   0.2825   0.7825
V30     V     0.9539   0.2175   0.7175
V31     V     0.0461   0.7825   0.7175
V32     V     0.0461   0.7175   0.7825
V33     V     0.9539   0.7825   0.2825
V34     V     0.9539   0.7175   0.2175
V35     V     0.0461   0.2175   0.2825
V36     V     0.0461   0.2825   0.2175
V37     V     0.5461   0.2825   0.2825
V38     V     0.5461   0.2175   0.2175
V39     V     0.5461   0.7825   0.7825
V40     V     0.5461   0.7175   0.7175
V41     V     0.4539   0.2175   0.2175
V42     V     0.4539   0.2825   0.2825
V43     V     0.4539   0.7825   0.7825
V44     V     0.4539   0.7175   0.7175
V45     V     0.7825   0.7825   0.5461
V46     V     0.7175   0.7175   0.5461
V47     V     0.2825   0.2825   0.5461
V48     V     0.2175   0.2175   0.5461
V49     V     0.7825   0.7825   0.4539
V50     V     0.7175   0.7175   0.4539
V51     V     0.2175   0.2175   0.4539
V52     V     0.2825   0.2825   0.4539
V53     V     0.2825   0.4539   0.2825
V54     V     0.2175   0.4539   0.2175
V55     V     0.7825   0.4539   0.7825
V56     V     0.7175   0.4539   0.7175
V57     V     0.2175   0.5461   0.2175
V58     V     0.2825   0.5461   0.2825
V59     V     0.7825   0.5461   0.7825
V60     V     0.7175   0.5461   0.7175
V61     V     0.7825   0.2825   0.0461
V62     V     0.7175   0.2175   0.0461
V63     V     0.2825   0.7825   0.0461
V64     V     0.2175   0.7175   0.0461
Er65     Er     0.611   0.454   0.824
Er66     Er     0.676   0.454   0.889
Ti67     Ti     0.7292   0.401   0.8359
Ti68     Ti     0.6641   0.401   0.7708
Er69     Er     0.676   0.389   0.954
Er70     Er     0.611   0.324   0.954
Ti71     Ti     0.6641   0.2708   0.901
Ti72     Ti     0.7292   0.3359   0.901
Er73     Er     0.546   0.389   0.824
Er74     Er     0.546   0.324   0.889
Ti75     Ti     0.599   0.3359   0.7708
Ti76     Ti     0.599   0.2708   0.8359
Ti77     Ti     0.599   0.2708   0.1641
Er78     Er     0.546   0.389   0.176
Er79     Er     0.546   0.324   0.111
Ti80     Ti     0.599   0.3359   0.2292
Er81     Er     0.676   0.389   0.046
Er82     Er     0.611   0.324   0.046
Ti83     Ti     0.7292   0.3359   0.099
Ti84     Ti     0.6641   0.2708   0.099
Er85     Er     0.676   0.454   0.111
Er86     Er     0.611   0.454   0.176
Ti87     Ti     0.6641   0.401   0.2292
Ti88     Ti     0.7292   0.401   0.1641
Er89     Er     0.389   0.324   0.046
Er90     Er     0.324   0.389   0.046
Ti91     Ti     0.3359   0.2708   0.099
Ti92     Ti     0.2708   0.3359   0.099
Er93     Er     0.454   0.389   0.176
Er94     Er     0.454   0.324   0.111
Ti95     Ti     0.401   0.3359   0.2292
Ti96     Ti     0.401   0.2708   0.1641
Er97     Er     0.389   0.454   0.176
Er98     Er     0.324   0.454   0.111
Ti99     Ti     0.3359   0.401   0.2292
Ti100     Ti     0.2708   0.401   0.1641
Er101     Er     0.324   0.389   0.954
Er102     Er     0.389   0.324   0.954
Ti103     Ti     0.2708   0.3359   0.901
Ti104     Ti     0.3359   0.2708   0.901
Er105     Er     0.389   0.454   0.824
Er106     Er     0.324   0.454   0.889
Ti107     Ti     0.3359   0.401   0.7708
Ti108     Ti     0.2708   0.401   0.8359
Er109     Er     0.454   0.389   0.824
Er110     Er     0.454   0.324   0.889
Ti111     Ti     0.401   0.2708   0.8359
Ti112     Ti     0.401   0.3359   0.7708
Ti113     Ti     0.6641   0.599   0.2292
Er114     Er     0.676   0.546   0.111
Er115     Er     0.611   0.546   0.176
Ti116     Ti     0.7292   0.599   0.1641
Ti117     Ti     0.599   0.6641   0.2292
Er118     Er     0.546   0.676   0.111
Er119     Er     0.546   0.611   0.176
Ti120     Ti     0.599   0.7292   0.1641
Er121     Er     0.676   0.611   0.046
Er122     Er     0.611   0.676   0.046
Ti123     Ti     0.6641   0.7292   0.099
Ti124     Ti     0.7292   0.6641   0.099
Er125     Er     0.611   0.676   0.954
Er126     Er     0.676   0.611   0.954
Ti127     Ti     0.7292   0.6641   0.901
Ti128     Ti     0.6641   0.7292   0.901
Ti129     Ti     0.7292   0.599   0.8359
Er130     Er     0.611   0.546   0.824
Er131     Er     0.676   0.546   0.889
Ti132     Ti     0.6641   0.599   0.7708
Ti133     Ti     0.599   0.6641   0.7708
Er134     Er     0.546   0.676   0.889
Er135     Er     0.546   0.611   0.824
Ti136     Ti     0.599   0.7292   0.8359
Er137     Er     0.454   0.676   0.111
Er138     Er     0.454   0.611   0.176
Ti139     Ti     0.401   0.6641   0.2292
Ti140     Ti     0.401   0.7292   0.1641
Ti141     Ti     0.2708   0.599   0.1641
Er142     Er     0.389   0.546   0.176
Er143     Er     0.324   0.546   0.111
Ti144     Ti     0.3359   0.599   0.2292
Er145     Er     0.389   0.676   0.046
Er146     Er     0.324   0.611   0.046
Ti147     Ti     0.3359   0.7292   0.099
Ti148     Ti     0.2708   0.6641   0.099
Er149     Er     0.454   0.611   0.824
Er150     Er     0.454   0.676   0.889
Ti151     Ti     0.401   0.6641   0.7708
Ti152     Ti     0.401   0.7292   0.8359
Er153     Er     0.389   0.676   0.954
Er154     Er     0.324   0.611   0.954
Ti155     Ti     0.3359   0.7292   0.901
Ti156     Ti     0.2708   0.6641   0.901
Er157     Er     0.389   0.546   0.824
Er158     Er     0.324   0.546   0.889
Ti159     Ti     0.3359   0.599   0.7708
Ti160     Ti     0.2708   0.599   0.8359
V161     V     0.5461   0.2175   0.7825
V162     V     0.5461   0.2825   0.7175
V163     V     0.4539   0.7825   0.2175
V164     V     0.4539   0.7175   0.2825
V165     V     0.4539   0.2175   0.7825
V166     V     0.4539   0.2825   0.7175
V167     V     0.5461   0.7825   0.2175
V168     V     0.5461   0.7175   0.2825
Er169     Er     0.389   0.954   0.324
Er170     Er     0.324   0.954   0.389
Ti171     Ti     0.3359   0.901   0.2708
Ti172     Ti     0.2708   0.901   0.3359
Er173     Er     0.389   0.824   0.454
Er174     Er     0.324   0.889   0.454
Ti175     Ti     0.2708   0.8359   0.401
Ti176     Ti     0.3359   0.7708   0.401
Er177     Er     0.454   0.824   0.389
Er178     Er     0.454   0.889   0.324
Ti179     Ti     0.401   0.7708   0.3359
Ti180     Ti     0.401   0.8359   0.2708
Er181     Er     0.324   0.046   0.389
Er182     Er     0.389   0.046   0.324
Ti183     Ti     0.2708   0.099   0.3359
Ti184     Ti     0.3359   0.099   0.2708
Er185     Er     0.389   0.176   0.454
Er186     Er     0.324   0.111   0.454
Ti187     Ti     0.3359   0.2292   0.401
Ti188     Ti     0.2708   0.1641   0.401
Er189     Er     0.454   0.176   0.389
Er190     Er     0.454   0.111   0.324
Ti191     Ti     0.401   0.2292   0.3359
Ti192     Ti     0.401   0.1641   0.2708
Er193     Er     0.676   0.111   0.454
Er194     Er     0.611   0.176   0.454
Ti195     Ti     0.6641   0.2292   0.401
Ti196     Ti     0.7292   0.1641   0.401
Ti197     Ti     0.599   0.1641   0.2708
Er198     Er     0.546   0.176   0.389
Er199     Er     0.546   0.111   0.324
Ti200     Ti     0.599   0.2292   0.3359
Er201     Er     0.676   0.046   0.389
Er202     Er     0.611   0.046   0.324
Ti203     Ti     0.7292   0.099   0.3359
Ti204     Ti     0.6641   0.099   0.2708
Er205     Er     0.611   0.824   0.454
Er206     Er     0.676   0.889   0.454
Ti207     Ti     0.6641   0.7708   0.401
Ti208     Ti     0.7292   0.8359   0.401
Er209     Er     0.676   0.954   0.389
Er210     Er     0.611   0.954   0.324
Ti211     Ti     0.7292   0.901   0.3359
Ti212     Ti     0.6641   0.901   0.2708
Er213     Er     0.546   0.824   0.389
Er214     Er     0.546   0.889   0.324
Ti215     Ti     0.599   0.7708   0.3359
Ti216     Ti     0.599   0.8359   0.2708
Ti217     Ti     0.599   0.2292   0.6641
Er218     Er     0.546   0.111   0.676
Er219     Er     0.546   0.176   0.611
Ti220     Ti     0.599   0.1641   0.7292
Ti221     Ti     0.6641   0.2292   0.599
Er222     Er     0.676   0.111   0.546
Er223     Er     0.611   0.176   0.546
Ti224     Ti     0.7292   0.1641   0.599
Er225     Er     0.611   0.046   0.676
Er226     Er     0.676   0.046   0.611
Ti227     Ti     0.7292   0.099   0.6641
Ti228     Ti     0.6641   0.099   0.7292
Er229     Er     0.611   0.954   0.676
Er230     Er     0.676   0.954   0.611
Ti231     Ti     0.6641   0.901   0.7292
Ti232     Ti     0.7292   0.901   0.6641
Ti233     Ti     0.6641   0.7708   0.599
Er234     Er     0.611   0.824   0.546
Er235     Er     0.676   0.889   0.546
Ti236     Ti     0.7292   0.8359   0.599
Ti237     Ti     0.599   0.8359   0.7292
Er238     Er     0.546   0.889   0.676
Er239     Er     0.546   0.824   0.611
Ti240     Ti     0.599   0.7708   0.6641
Er241     Er     0.454   0.111   0.676
Er242     Er     0.454   0.176   0.611
Ti243     Ti     0.401   0.2292   0.6641
Ti244     Ti     0.401   0.1641   0.7292
Ti245     Ti     0.3359   0.2292   0.599
Er246     Er     0.389   0.176   0.546
Er247     Er     0.324   0.111   0.546
Ti248     Ti     0.2708   0.1641   0.599
Er249     Er     0.389   0.046   0.676
Er250     Er     0.324   0.046   0.611
Ti251     Ti     0.3359   0.099   0.7292
Ti252     Ti     0.2708   0.099   0.6641
Er253     Er     0.454   0.824   0.611
Er254     Er     0.454   0.889   0.676
Ti255     Ti     0.401   0.8359   0.7292
Ti256     Ti     0.401   0.7708   0.6641
Er257     Er     0.389   0.954   0.676
Er258     Er     0.324   0.954   0.611
Ti259     Ti     0.2708   0.901   0.6641
Ti260     Ti     0.3359   0.901   0.7292
Er261     Er     0.389   0.824   0.546
Er262     Er     0.324   0.889   0.546
Ti263     Ti     0.3359   0.7708   0.599
Ti264     Ti     0.2708   0.8359   0.599
V265     V     0.2175   0.7825   0.5461
V266     V     0.2825   0.7175   0.5461
V267     V     0.7825   0.2175   0.4539
V268     V     0.7175   0.2825   0.4539
V269     V     0.2175   0.4539   0.7825
V270     V     0.2825   0.4539   0.7175
V271     V     0.7825   0.5461   0.2175
V272     V     0.7175   0.5461   0.2825
V273     V     0.7825   0.2175   0.5461
V274     V     0.7175   0.2825   0.5461
V275     V     0.2175   0.7825   0.4539
V276     V     0.2825   0.7175   0.4539
V277     V     0.2175   0.5461   0.7825
V278     V     0.2825   0.5461   0.7175
V279     V     0.7825   0.4539   0.2175
V280     V     0.7175   0.4539   0.2825
Er281     Er     0.046   0.389   0.324
Er282     Er     0.046   0.324   0.389
Ti283     Ti     0.099   0.3359   0.2708
Ti284     Ti     0.099   0.2708   0.3359
Er285     Er     0.176   0.389   0.454
Er286     Er     0.111   0.324   0.454
Ti287     Ti     0.2292   0.3359   0.401
Ti288     Ti     0.1641   0.2708   0.401
Er289     Er     0.176   0.454   0.389
Er290     Er     0.111   0.454   0.324
Ti291     Ti     0.2292   0.401   0.3359
Ti292     Ti     0.1641   0.401   0.2708
Er293     Er     0.954   0.389   0.324
Er294     Er     0.954   0.324   0.389
Ti295     Ti     0.901   0.2708   0.3359
Ti296     Ti     0.901   0.3359   0.2708
Er297     Er     0.824   0.389   0.454
Er298     Er     0.889   0.324   0.454
Ti299     Ti     0.7708   0.3359   0.401
Ti300     Ti     0.8359   0.2708   0.401
Er301     Er     0.824   0.454   0.389
Er302     Er     0.889   0.454   0.324
Ti303     Ti     0.8359   0.401   0.2708
Ti304     Ti     0.7708   0.401   0.3359
Er305     Er     0.111   0.676   0.454
Er306     Er     0.176   0.611   0.454
Ti307     Ti     0.2292   0.6641   0.401
Ti308     Ti     0.1641   0.7292   0.401
Ti309     Ti     0.1641   0.599   0.2708
Er310     Er     0.176   0.546   0.389
Er311     Er     0.111   0.546   0.324
Ti312     Ti     0.2292   0.599   0.3359
Er313     Er     0.046   0.676   0.389
Er314     Er     0.046   0.611   0.324
Ti315     Ti     0.099   0.7292   0.3359
Ti316     Ti     0.099   0.6641   0.2708
Er317     Er     0.824   0.611   0.454
Er318     Er     0.889   0.676   0.454
Ti319     Ti     0.8359   0.7292   0.401
Ti320     Ti     0.7708   0.6641   0.401
Er321     Er     0.954   0.676   0.389
Er322     Er     0.954   0.611   0.324
Ti323     Ti     0.901   0.6641   0.2708
Ti324     Ti     0.901   0.7292   0.3359
Er325     Er     0.824   0.546   0.389
Er326     Er     0.889   0.546   0.324
Ti327     Ti     0.7708   0.599   0.3359
Ti328     Ti     0.8359   0.599   0.2708
Ti329     Ti     0.1641   0.2708   0.599
Er330     Er     0.176   0.389   0.546
Er331     Er     0.111   0.324   0.546
Ti332     Ti     0.2292   0.3359   0.599
Er333     Er     0.046   0.389   0.676
Er334     Er     0.046   0.324   0.611
Ti335     Ti     0.099   0.2708   0.6641
Ti336     Ti     0.099   0.3359   0.7292
Er337     Er     0.111   0.454   0.676
Er338     Er     0.176   0.454   0.611
Ti339     Ti     0.2292   0.401   0.6641
Ti340     Ti     0.1641   0.401   0.7292
Er341     Er     0.824   0.454   0.611
Er342     Er     0.889   0.454   0.676
Ti343     Ti     0.7708   0.401   0.6641
Ti344     Ti     0.8359   0.401   0.7292
Er345     Er     0.954   0.389   0.676
Er346     Er     0.954   0.324   0.611
Ti347     Ti     0.901   0.3359   0.7292
Ti348     Ti     0.901   0.2708   0.6641
Er349     Er     0.824   0.389   0.546
Er350     Er     0.889   0.324   0.546
Ti351     Ti     0.7708   0.3359   0.599
Ti352     Ti     0.8359   0.2708   0.599
Er353     Er     0.046   0.611   0.676
Er354     Er     0.046   0.676   0.611
Ti355     Ti     0.099   0.6641   0.7292
Ti356     Ti     0.099   0.7292   0.6641
Ti357     Ti     0.2292   0.599   0.6641
Er358     Er     0.111   0.546   0.676
Er359     Er     0.176   0.546   0.611
Ti360     Ti     0.1641   0.599   0.7292
Ti361     Ti     0.2292   0.6641   0.599
Er362     Er     0.111   0.676   0.546
Er363     Er     0.176   0.611   0.546
Ti364     Ti     0.1641   0.7292   0.599
Er365     Er     0.954   0.676   0.611
Er366     Er     0.954   0.611   0.676
Ti367     Ti     0.901   0.7292   0.6641
Ti368     Ti     0.901   0.6641   0.7292
Ti369     Ti     0.8359   0.7292   0.599
Er370     Er     0.824   0.611   0.546
Er371     Er     0.889   0.676   0.546
Ti372     Ti     0.7708   0.6641   0.599
Ti373     Ti     0.7708   0.599   0.6641
Er374     Er     0.889   0.546   0.676
Er375     Er     0.824   0.546   0.611
Ti376     Ti     0.8359   0.599   0.7292
V377     V     0.2825   0.0461   0.7825
V378     V     0.2175   0.0461   0.7175
V379     V     0.0461   0.7825   0.2825
V380     V     0.0461   0.7175   0.2175
V381     V     0.0461   0.2825   0.7825
V382     V     0.0461   0.2175   0.7175
V383     V     0.7825   0.0461   0.2825
V384     V     0.7175   0.0461   0.2175
Er385     Er     0.824   0.046   0.889
Er386     Er     0.889   0.046   0.824
Ti387     Ti     0.7708   0.099   0.8359
Ti388     Ti     0.8359   0.099   0.7708
Er389     Er     0.824   0.111   0.954
Er390     Er     0.889   0.176   0.954
Ti391     Ti     0.8359   0.2292   0.901
Ti392     Ti     0.7708   0.1641   0.901
Er393     Er     0.954   0.111   0.824
Er394     Er     0.954   0.176   0.889
Ti395     Ti     0.901   0.2292   0.8359
Ti396     Ti     0.901   0.1641   0.7708
Er397     Er     0.889   0.824   0.954
Er398     Er     0.824   0.889   0.954
Ti399     Ti     0.7708   0.8359   0.901
Ti400     Ti     0.8359   0.7708   0.901
Er401     Er     0.889   0.954   0.824
Er402     Er     0.824   0.954   0.889
Ti403     Ti     0.8359   0.901   0.7708
Ti404     Ti     0.7708   0.901   0.8359
Er405     Er     0.954   0.889   0.824
Er406     Er     0.954   0.824   0.889
Ti407     Ti     0.901   0.7708   0.8359
Ti408     Ti     0.901   0.8359   0.7708
Er409     Er     0.046   0.889   0.824
Er410     Er     0.046   0.824   0.889
Ti411     Ti     0.099   0.8359   0.7708
Ti412     Ti     0.099   0.7708   0.8359
Er413     Er     0.111   0.824   0.954
Er414     Er     0.176   0.889   0.954
Ti415     Ti     0.2292   0.8359   0.901
Ti416     Ti     0.1641   0.7708   0.901
Er417     Er     0.111   0.954   0.824
Er418     Er     0.176   0.954   0.889
Ti419     Ti     0.2292   0.901   0.8359
Ti420     Ti     0.1641   0.901   0.7708
Er421     Er     0.111   0.176   0.954
Er422     Er     0.176   0.111   0.954
Ti423     Ti     0.2292   0.1641   0.901
Ti424     Ti     0.1641   0.2292   0.901
Ti425     Ti     0.2292   0.099   0.8359
Er426     Er     0.111   0.046   0.824
Er427     Er     0.176   0.046   0.889
Ti428     Ti     0.1641   0.099   0.7708
Ti429     Ti     0.099   0.2292   0.8359
Er430     Er     0.046   0.111   0.824
Er431     Er     0.046   0.176   0.889
Ti432     Ti     0.099   0.1641   0.7708
Er433     Er     0.111   0.954   0.176
Er434     Er     0.176   0.954   0.111
Ti435     Ti     0.1641   0.901   0.2292
Ti436     Ti     0.2292   0.901   0.1641
Ti437     Ti     0.2292   0.8359   0.099
Er438     Er     0.111   0.824   0.046
Er439     Er     0.176   0.889   0.046
Ti440     Ti     0.1641   0.7708   0.099
Ti441     Ti     0.099   0.8359   0.2292
Er442     Er     0.046   0.824   0.111
Er443     Er     0.046   0.889   0.176
Ti444     Ti     0.099   0.7708   0.1641
Er445     Er     0.824   0.889   0.046
Er446     Er     0.889   0.824   0.046
Ti447     Ti     0.8359   0.7708   0.099
Ti448     Ti     0.7708   0.8359   0.099
Er449     Er     0.954   0.824   0.111
Er450     Er     0.954   0.889   0.176
Ti451     Ti     0.901   0.8359   0.2292
Ti452     Ti     0.901   0.7708   0.1641
Er453     Er     0.824   0.954   0.111
Er454     Er     0.889   0.954   0.176
Ti455     Ti     0.8359   0.901   0.2292
Ti456     Ti     0.7708   0.901   0.1641
Ti457     Ti     0.2292   0.1641   0.099
Er458     Er     0.176   0.111   0.046
Er459     Er     0.111   0.176   0.046
Ti460     Ti     0.1641   0.2292   0.099
Ti461     Ti     0.1641   0.099   0.2292
Er462     Er     0.111   0.046   0.176
Er463     Er     0.176   0.046   0.111
Ti464     Ti     0.2292   0.099   0.1641
Ti465     Ti     0.099   0.2292   0.1641
Er466     Er     0.046   0.111   0.176
Er467     Er     0.046   0.176   0.111
Ti468     Ti     0.099   0.1641   0.2292
Er469     Er     0.954   0.111   0.176
Er470     Er     0.954   0.176   0.111
Ti471     Ti     0.901   0.2292   0.1641
Ti472     Ti     0.901   0.1641   0.2292
Ti473     Ti     0.8359   0.2292   0.099
Er474     Er     0.824   0.111   0.046
Er475     Er     0.889   0.176   0.046
Ti476     Ti     0.7708   0.1641   0.099
Ti477     Ti     0.8359   0.099   0.2292
Er478     Er     0.824   0.046   0.111
Er479     Er     0.889   0.046   0.176
Ti480     Ti     0.7708   0.099   0.1641
loop_
_geom_bond_atom_site_label_1
_geom_bond_atom_site_label_2
_geom_bond_distance
_geom_bond_site_symmetry_2
_ccdc_geom_bond_type
V1     V2    9.981   .     S
V1     Ti128    10.011   .     S
V1     Ti399    10.011   .     S
V1     V14    10.018   1_556     S
V2     Ti127    10.011   .     S
V2     Ti400    10.011   .     S
V2     V13    10.018   1_556     S
V3     V4    9.981   .     S
V3     Ti104    10.011   .     S
V3     Ti423    10.011   .     S
V3     V20    10.018   1_556     S
V4     Ti103    10.011   .     S
V4     Ti424    10.011   .     S
V4     V19    10.018   1_556     S
V5     V6    9.981   .     S
V5     Ti368    10.011   .     S
V5     Ti407    10.011   .     S
V5     V32    10.018   1_655     S
V6     Ti367    10.011   .     S
V6     Ti408    10.011   .     S
V6     V31    10.018   1_655     S
V7     V8    9.981   .     S
V7     Ti296    10.011   .     S
V7     Ti471    10.011   .     S
V7     V36    10.018   1_655     S
V8     Ti295    10.011   .     S
V8     Ti472    10.011   .     S
V8     V35    10.018   1_655     S
V9     V10    9.981   .     S
V9     Ti232    10.011   .     S
V9     Ti403    10.011   .     S
V9     V22    10.018   1_565     S
V10     Ti231    10.011   .     S
V10     Ti404    10.011   .     S
V10     V21    10.018   1_565     S
V11     V12    9.981   .     S
V11     Ti172    10.011   .     S
V11     Ti435    10.011   .     S
V11     V28    10.018   1_565     S
V12     Ti171    10.011   .     S
V12     Ti436    10.011   .     S
V12     V27    10.018   1_565     S
V13     V14    9.981   .     S
V13     Ti124    10.011   .     S
V13     Ti447    10.011   .     S
V13     V2    10.018   1_554     S
V14     Ti123    10.011   .     S
V14     Ti448    10.011   .     S
V14     V1    10.018   1_554     S
V15     V16    9.981   .     S
V15     Ti72    10.011   .     S
V15     Ti391    10.011   .     S
V15     V61    10.018   1_556     S
V16     Ti71    10.011   .     S
V16     Ti392    10.011   .     S
V16     V62    10.018   1_556     S
V17     V18    9.981   .     S
V17     Ti155    10.011   .     S
V17     Ti415    10.011   .     S
V17     V63    10.018   1_556     S
V18     Ti156    10.011   .     S
V18     Ti416    10.011   .     S
V18     V64    10.018   1_556     S
V19     V20    9.981   .     S
V19     Ti92    10.011   .     S
V19     Ti460    10.011   .     S
V19     V4    10.018   1_554     S
V20     Ti91    10.011   .     S
V20     Ti457    10.011   .     S
V20     V3    10.018   1_554     S
V21     V22    9.981   .     S
V21     Ti228    10.011   .     S
V21     Ti387    10.011   .     S
V21     V10    10.018   1_545     S
V22     Ti227    10.011   .     S
V22     Ti388    10.011   .     S
V22     V9    10.018   1_545     S
V23     V24    9.981   .     S
V23     Ti260    10.011   .     S
V23     Ti419    10.011   .     S
V23     V377    10.018   1_565     S
V24     Ti259    10.011   .     S
V24     Ti420    10.011   .     S
V24     V378    10.018   1_565     S
V25     V26    9.981   .     S
V25     Ti211    10.011   .     S
V25     Ti455    10.011   .     S
V25     V383    10.018   1_565     S
V26     Ti212    10.011   .     S
V26     Ti456    10.011   .     S
V26     V384    10.018   1_565     S
V27     V28    9.981   .     S
V27     Ti184    10.011   .     S
V27     Ti464    10.011   .     S
V27     V12    10.018   1_545     S
V28     Ti183    10.011   .     S
V28     Ti461    10.011   .     S
V28     V11    10.018   1_545     S
V29     V30    9.981   .     S
V29     Ti347    10.011   .     S
V29     Ti395    10.011   .     S
V29     V381    10.018   1_655     S
V30     Ti348    10.011   .     S
V30     Ti396    10.011   .     S
V30     V382    10.018   1_655     S
V31     V32    9.981   .     S
V31     Ti356    10.011   .     S
V31     Ti411    10.011   .     S
V31     V6    10.018   1_455     S
V32     Ti355    10.011   .     S
V32     Ti412    10.011   .     S
V32     V5    10.018   1_455     S
V33     V34    9.981   .     S
V33     Ti324    10.011   .     S
V33     Ti451    10.011   .     S
V33     V379    10.018   1_655     S
V34     Ti323    10.011   .     S
V34     Ti452    10.011   .     S
V34     V380    10.018   1_655     S
V35     V36    9.981   .     S
V35     Ti284    10.011   .     S
V35     Ti468    10.011   .     S
V35     V8    10.018   1_455     S
V36     Ti283    10.011   .     S
V36     Ti465    10.011   .     S
V36     V7    10.018   1_455     S
V37     V38    9.981   .     S
V37     Ti80    10.011   .     S
V37     Ti200    10.011   .     S
V37     V42    10.018   .     S
V38     Ti77    10.011   .     S
V38     Ti197    10.011   .     S
V38     V41    10.018   .     S
V39     V40    9.981   .     S
V39     Ti136    10.011   .     S
V39     Ti237    10.011   .     S
V39     V43    10.018   .     S
V40     Ti133    10.011   .     S
V40     Ti240    10.011   .     S
V40     V44    10.018   .     S
V41     V42    9.981   .     S
V41     Ti96    10.011   .     S
V41     Ti192    10.011   .     S
V42     Ti95    10.011   .     S
V42     Ti191    10.011   .     S
V43     V44    9.981   .     S
V43     Ti152    10.011   .     S
V43     Ti255    10.011   .     S
V44     Ti151    10.011   .     S
V44     Ti256    10.011   .     S
V45     V46    9.981   .     S
V45     Ti236    10.011   .     S
V45     Ti369    10.011   .     S
V45     V49    10.018   .     S
V46     Ti233    10.011   .     S
V46     Ti372    10.011   .     S
V46     V50    10.018   .     S
V47     V48    9.981   .     S
V47     Ti245    10.011   .     S
V47     Ti332    10.011   .     S
V47     V52    10.018   .     S
V48     Ti248    10.011   .     S
V48     Ti329    10.011   .     S
V48     V51    10.018   .     S
V49     V50    9.981   .     S
V49     Ti208    10.011   .     S
V49     Ti319    10.011   .     S
V50     Ti207    10.011   .     S
V50     Ti320    10.011   .     S
V51     V52    9.981   .     S
V51     Ti188    10.011   .     S
V51     Ti288    10.011   .     S
V52     Ti187    10.011   .     S
V52     Ti287    10.011   .     S
V53     V54    9.981   .     S
V53     Ti99    10.011   .     S
V53     Ti291    10.011   .     S
V53     V58    10.018   .     S
V54     Ti100    10.011   .     S
V54     Ti292    10.011   .     S
V54     V57    10.018   .     S
V55     V56    9.981   .     S
V55     Ti67    10.011   .     S
V55     Ti344    10.011   .     S
V55     V59    10.018   .     S
V56     Ti68    10.011   .     S
V56     Ti343    10.011   .     S
V56     V60    10.018   .     S
V57     V58    9.981   .     S
V57     Ti141    10.011   .     S
V57     Ti309    10.011   .     S
V58     Ti144    10.011   .     S
V58     Ti312    10.011   .     S
V59     V60    9.981   .     S
V59     Ti129    10.011   .     S
V59     Ti376    10.011   .     S
V60     Ti132    10.011   .     S
V60     Ti373    10.011   .     S
V61     V62    9.981   .     S
V61     Ti83    10.011   .     S
V61     Ti473    10.011   .     S
V61     V15    10.018   1_554     S
V62     Ti84    10.011   .     S
V62     Ti476    10.011   .     S
V62     V16    10.018   1_554     S
V63     V64    9.981   .     S
V63     Ti147    10.011   .     S
V63     Ti437    10.011   .     S
V63     V17    10.018   1_554     S
V64     Ti148    10.011   .     S
V64     Ti440    10.011   .     S
V64     V18    10.018   1_554     S
Er65     Er66    9.988   .     S
Er65     Ti68    9.991   .     S
Er65     Er73    9.996   .     S
Er65     Er130    9.998   .     S
Er66     Ti67    9.991   .     S
Er66     Er69    9.996   .     S
Er66     Er131    9.998   .     S
Ti67     Ti68    9.998   .     S
Ti67     Ti72    10.014   .     S
Ti68     Ti75    10.014   .     S
Er69     Er70    9.988   .     S
Er69     Ti72    9.991   .     S
Er69     Er81    9.998   1_556     S
Er70     Ti71    9.991   .     S
Er70     Er74    9.996   .     S
Er70     Er82    9.998   1_556     S
Ti71     Ti72    9.998   .     S
Ti71     Ti76    10.014   .     S
Er73     Er74    9.988   .     S
Er73     Ti75    9.991   .     S
Er73     Er109    9.998   .     S
Er74     Ti76    9.991   .     S
Er74     Er110    9.998   .     S
Ti75     Ti76    9.998   .     S
Ti75     V162    10.011   .     S
Ti76     V161    10.011   .     S
Ti77     Er79    9.991   .     S
Ti77     Ti80    9.998   .     S
Ti77     Ti84    10.014   .     S
Er78     Er79    9.988   .     S
Er78     Ti80    9.991   .     S
Er78     Er86    9.996   .     S
Er78     Er93    9.998   .     S
Er79     Er82    9.996   .     S
Er79     Er94    9.998   .     S
Ti80     Ti87    10.014   .     S
Er81     Er69    9.998   1_554     S
Er81     Er82    9.988   .     S
Er81     Ti83    9.991   .     S
Er81     Er85    9.996   .     S
Er82     Er70    9.998   1_554     S
Er82     Ti84    9.991   .     S
Ti83     Ti84    9.998   .     S
Ti83     Ti88    10.014   .     S
Er85     Er86    9.988   .     S
Er85     Ti88    9.991   .     S
Er85     Er114    9.998   .     S
Er86     Ti87    9.991   .     S
Er86     Er115    9.998   .     S
Ti87     Ti88    9.998   .     S
Ti87     V280    10.011   .     S
Ti88     V279    10.011   .     S
Er89     Er90    9.988   .     S
Er89     Ti91    9.991   .     S
Er89     Er94    9.996   .     S
Er89     Er102    9.998   1_554     S
Er90     Ti92    9.991   .     S
Er90     Er98    9.996   .     S
Er90     Er101    9.998   1_554     S
Ti91     Ti92    9.998   .     S
Ti91     Ti96    10.014   .     S
Ti92     Ti100    10.014   .     S
Er93     Er94    9.988   .     S
Er93     Ti95    9.991   .     S
Er93     Er97    9.996   .     S
Er94     Ti96    9.991   .     S
Ti95     Ti96    9.998   .     S
Ti95     Ti99    10.014   .     S
Er97     Er98    9.988   .     S
Er97     Ti99    9.991   .     S
Er97     Er142    9.998   .     S
Er98     Ti100    9.991   .     S
Er98     Er143    9.998   .     S
Ti99     Ti100    9.998   .     S
Er101     Er102    9.988   .     S
Er101     Ti103    9.991   .     S
Er101     Er106    9.996   .     S
Er101     Er90    9.998   1_556     S
Er102     Ti104    9.991   .     S
Er102     Er110    9.996   .     S
Er102     Er89    9.998   1_556     S
Ti103     Ti104    9.998   .     S
Ti103     Ti108    10.014   .     S
Ti104     Ti111    10.014   .     S
Er105     Er106    9.988   .     S
Er105     Ti107    9.991   .     S
Er105     Er109    9.996   .     S
Er105     Er157    9.998   .     S
Er106     Ti108    9.991   .     S
Er106     Er158    9.998   .     S
Ti107     Ti108    9.998   .     S
Ti107     V270    10.011   .     S
Ti107     Ti112    10.014   .     S
Ti108     V269    10.011   .     S
Er109     Er110    9.988   .     S
Er109     Ti112    9.991   .     S
Er110     Ti111    9.991   .     S
Ti111     Ti112    9.998   .     S
Ti111     V165    10.011   .     S
Ti112     V166    10.011   .     S
Ti113     Er115    9.991   .     S
Ti113     Ti116    9.998   .     S
Ti113     V272    10.011   .     S
Ti113     Ti117    10.014   .     S
Er114     Er115    9.988   .     S
Er114     Ti116    9.991   .     S
Er114     Er121    9.996   .     S
Er115     Er119    9.996   .     S
Ti116     V271    10.011   .     S
Ti116     Ti124    10.014   .     S
Ti117     Er119    9.991   .     S
Ti117     Ti120    9.998   .     S
Ti117     V168    10.011   .     S
Er118     Er119    9.988   .     S
Er118     Ti120    9.991   .     S
Er118     Er122    9.996   .     S
Er118     Er137    9.998   .     S
Er119     Er138    9.998   .     S
Ti120     V167    10.011   .     S
Ti120     Ti123    10.014   .     S
Er121     Er122    9.988   .     S
Er121     Ti124    9.991   .     S
Er121     Er126    9.998   1_554     S
Er122     Ti123    9.991   .     S
Er122     Er125    9.998   1_554     S
Ti123     Ti124    9.998   .     S
Er125     Er126    9.988   .     S
Er125     Ti128    9.991   .     S
Er125     Er134    9.996   .     S
Er125     Er122    9.998   1_556     S
Er126     Ti127    9.991   .     S
Er126     Er131    9.996   .     S
Er126     Er121    9.998   1_556     S
Ti127     Ti128    9.998   .     S
Ti127     Ti129    10.014   .     S
Ti128     Ti136    10.014   .     S
Ti129     Er131    9.991   .     S
Ti129     Ti132    9.998   .     S
Er130     Er131    9.988   .     S
Er130     Ti132    9.991   .     S
Er130     Er135    9.996   .     S
Ti132     Ti133    10.014   .     S
Ti133     Er135    9.991   .     S
Ti133     Ti136    9.998   .     S
Er134     Er135    9.988   .     S
Er134     Ti136    9.991   .     S
Er134     Er150    9.998   .     S
Er135     Er149    9.998   .     S
Er137     Er138    9.988   .     S
Er137     Ti140    9.991   .     S
Er137     Er145    9.996   .     S
Er138     Ti139    9.991   .     S
Er138     Er142    9.996   .     S
Ti139     Ti140    9.998   .     S
Ti139     V164    10.011   .     S
Ti139     Ti144    10.014   .     S
Ti140     V163    10.011   .     S
Ti140     Ti147    10.014   .     S
Ti141     Er143    9.991   .     S
Ti141     Ti144    9.998   .     S
Ti141     Ti148    10.014   .     S
Er142     Er143    9.988   .     S
Er142     Ti144    9.991   .     S
Er143     Er146    9.996   .     S
Er145     Er146    9.988   .     S
Er145     Ti147    9.991   .     S
Er145     Er153    9.998   1_554     S
Er146     Ti148    9.991   .     S
Er146     Er154    9.998   1_554     S
Ti147     Ti148    9.998   .     S
Er149     Er150    9.988   .     S
Er149     Ti151    9.991   .     S
Er149     Er157    9.996   .     S
Er150     Ti152    9.991   .     S
Er150     Er153    9.996   .     S
Ti151     Ti152    9.998   .     S
Ti151     Ti159    10.014   .     S
Ti152     Ti155    10.014   .     S
Er153     Er154    9.988   .     S
Er153     Ti155    9.991   .     S
Er153     Er145    9.998   1_556     S
Er154     Ti156    9.991   .     S
Er154     Er158    9.996   .     S
Er154     Er146    9.998   1_556     S
Ti155     Ti156    9.998   .     S
Ti156     Ti160    10.014   .     S
Er157     Er158    9.988   .     S
Er157     Ti159    9.991   .     S
Er158     Ti160    9.991   .     S
Ti159     Ti160    9.998   .     S
Ti159     V278    10.011   .     S
Ti160     V277    10.011   .     S
V161     V162    9.981   .     S
V161     Ti220    10.011   .     S
V161     V165    10.018   .     S
V162     Ti217    10.011   .     S
V162     V166    10.018   .     S
V163     V164    9.981   .     S
V163     Ti180    10.011   .     S
V163     V167    10.018   .     S
V164     Ti179    10.011   .     S
V164     V168    10.018   .     S
V165     V166    9.981   .     S
V165     Ti244    10.011   .     S
V166     Ti243    10.011   .     S
V167     V168    9.981   .     S
V167     Ti216    10.011   .     S
V168     Ti215    10.011   .     S
Er169     Er170    9.988   .     S
Er169     Ti171    9.991   .     S
Er169     Er178    9.996   .     S
Er169     Er182    9.998   1_565     S
Er170     Ti172    9.991   .     S
Er170     Er174    9.996   .     S
Er170     Er181    9.998   1_565     S
Ti171     Ti172    9.998   .     S
Ti171     Ti180    10.014   .     S
Ti172     Ti175    10.014   .     S
Er173     Er174    9.988   .     S
Er173     Ti176    9.991   .     S
Er173     Er177    9.996   .     S
Er173     Er261    9.998   .     S
Er174     Ti175    9.991   .     S
Er174     Er262    9.998   .     S
Ti175     Ti176    9.998   .     S
Ti175     V275    10.011   .     S
Ti176     V276    10.011   .     S
Ti176     Ti179    10.014   .     S
Er177     Er178    9.988   .     S
Er177     Ti179    9.991   .     S
Er177     Er213    9.998   .     S
Er178     Ti180    9.991   .     S
Er178     Er214    9.998   .     S
Ti179     Ti180    9.998   .     S
Er181     Er170    9.998   1_545     S
Er181     Er182    9.988   .     S
Er181     Ti183    9.991   .     S
Er181     Er186    9.996   .     S
Er182     Er169    9.998   1_545     S
Er182     Ti184    9.991   .     S
Er182     Er190    9.996   .     S
Ti183     Ti184    9.998   .     S
Ti183     Ti188    10.014   .     S
Ti184     Ti192    10.014   .     S
Er185     Er186    9.988   .     S
Er185     Ti187    9.991   .     S
Er185     Er189    9.996   .     S
Er185     Er246    9.998   .     S
Er186     Ti188    9.991   .     S
Er186     Er247    9.998   .     S
Ti187     Ti188    9.998   .     S
Ti187     Ti191    10.014   .     S
Er189     Er190    9.988   .     S
Er189     Ti191    9.991   .     S
Er189     Er198    9.998   .     S
Er190     Ti192    9.991   .     S
Er190     Er199    9.998   .     S
Ti191     Ti192    9.998   .     S
Er193     Er194    9.988   .     S
Er193     Ti196    9.991   .     S
Er193     Er201    9.996   .     S
Er193     Er222    9.998   .     S
Er194     Ti195    9.991   .     S
Er194     Er198    9.996   .     S
Er194     Er223    9.998   .     S
Ti195     Ti196    9.998   .     S
Ti195     V268    10.011   .     S
Ti195     Ti200    10.014   .     S
Ti196     V267    10.011   .     S
Ti196     Ti203    10.014   .     S
Ti197     Er199    9.991   .     S
Ti197     Ti200    9.998   .     S
Ti197     Ti204    10.014   .     S
Er198     Er199    9.988   .     S
Er198     Ti200    9.991   .     S
Er199     Er202    9.996   .     S
Er201     Er202    9.988   .     S
Er201     Ti203    9.991   .     S
Er201     Er209    9.998   1_545     S
Er202     Ti204    9.991   .     S
Er202     Er210    9.998   1_545     S
Ti203     Ti204    9.998   .     S
Ti203     V383    10.011   .     S
Ti204     V384    10.011   .     S
Er205     Er206    9.988   .     S
Er205     Ti207    9.991   .     S
Er205     Er213    9.996   .     S
Er205     Er234    9.998   .     S
Er206     Ti208    9.991   .     S
Er206     Er209    9.996   .     S
Er206     Er235    9.998   .     S
Ti207     Ti208    9.998   .     S
Ti207     Ti215    10.014   .     S
Ti208     Ti211    10.014   .     S
Er209     Er210    9.988   .     S
Er209     Ti211    9.991   .     S
Er209     Er201    9.998   1_565     S
Er210     Ti212    9.991   .     S
Er210     Er214    9.996   .     S
Er210     Er202    9.998   1_565     S
Ti211     Ti212    9.998   .     S
Ti212     Ti216    10.014   .     S
Er213     Er214    9.988   .     S
Er213     Ti215    9.991   .     S
Er214     Ti216    9.991   .     S
Ti215     Ti216    9.998   .     S
Ti217     Er219    9.991   .     S
Ti217     Ti220    9.998   .     S
Ti217     Ti221    10.014   .     S
Er218     Er219    9.988   .     S
Er218     Ti220    9.991   .     S
Er218     Er225    9.996   .     S
Er218     Er241    9.998   .     S
Er219     Er223    9.996   .     S
Er219     Er242    9.998   .     S
Ti220     Ti228    10.014   .     S
Ti221     Er223    9.991   .     S
Ti221     Ti224    9.998   .     S
Ti221     V274    10.011   .     S
Er222     Er223    9.988   .     S
Er222     Ti224    9.991   .     S
Er222     Er226    9.996   .     S
Ti224     V273    10.011   .     S
Ti224     Ti227    10.014   .     S
Er225     Er226    9.988   .     S
Er225     Ti228    9.991   .     S
Er225     Er229    9.998   1_545     S
Er226     Ti227    9.991   .     S
Er226     Er230    9.998   1_545     S
Ti227     Ti228    9.998   .     S
Er229     Er230    9.988   .     S
Er229     Ti231    9.991   .     S
Er229     Er238    9.996   .     S
Er229     Er225    9.998   1_565     S
Er230     Ti232    9.991   .     S
Er230     Er235    9.996   .     S
Er230     Er226    9.998   1_565     S
Ti231     Ti232    9.998   .     S
Ti231     Ti237    10.014   .     S
Ti232     Ti236    10.014   .     S
Ti233     Er234    9.991   .     S
Ti233     Ti236    9.998   .     S
Ti233     Ti240    10.014   .     S
Er234     Er235    9.988   .     S
Er234     Er239    9.996   .     S
Er235     Ti236    9.991   .     S
Ti237     Er238    9.991   .     S
Ti237     Ti240    9.998   .     S
Er238     Er239    9.988   .     S
Er238     Er254    9.998   .     S
Er239     Ti240    9.991   .     S
Er239     Er253    9.998   .     S
Er241     Er242    9.988   .     S
Er241     Ti244    9.991   .     S
Er241     Er249    9.996   .     S
Er242     Ti243    9.991   .     S
Er242     Er246    9.996   .     S
Ti243     Ti244    9.998   .     S
Ti243     Ti245    10.014   .     S
Ti244     Ti251    10.014   .     S
Ti245     Er246    9.991   .     S
Ti245     Ti248    9.998   .     S
Er246     Er247    9.988   .     S
Er247     Ti248    9.991   .     S
Er247     Er250    9.996   .     S
Ti248     Ti252    10.014   .     S
Er249     Er250    9.988   .     S
Er249     Ti251    9.991   .     S
Er249     Er257    9.998   1_545     S
Er250     Ti252    9.991   .     S
Er250     Er258    9.998   1_545     S
Ti251     Ti252    9.998   .     S
Ti251     V377    10.011   .     S
Ti252     V378    10.011   .     S
Er253     Er254    9.988   .     S
Er253     Ti256    9.991   .     S
Er253     Er261    9.996   .     S
Er254     Ti255    9.991   .     S
Er254     Er257    9.996   .     S
Ti255     Ti256    9.998   .     S
Ti255     Ti260    10.014   .     S
Ti256     Ti263    10.014   .     S
Er257     Er258    9.988   .     S
Er257     Ti260    9.991   .     S
Er257     Er249    9.998   1_565     S
Er258     Ti259    9.991   .     S
Er258     Er262    9.996   .     S
Er258     Er250    9.998   1_565     S
Ti259     Ti260    9.998   .     S
Ti259     Ti264    10.014   .     S
Er261     Er262    9.988   .     S
Er261     Ti263    9.991   .     S
Er262     Ti264    9.991   .     S
Ti263     Ti264    9.998   .     S
Ti263     V266    10.011   .     S
Ti264     V265    10.011   .     S
V265     V266    9.981   .     S
V265     Ti364    10.011   .     S
V265     V275    10.018   .     S
V266     Ti361    10.011   .     S
V266     V276    10.018   .     S
V267     V268    9.981   .     S
V267     Ti300    10.011   .     S
V267     V273    10.018   .     S
V268     Ti299    10.011   .     S
V268     V274    10.018   .     S
V269     V270    9.981   .     S
V269     Ti340    10.011   .     S
V269     V277    10.018   .     S
V270     Ti339    10.011   .     S
V270     V278    10.018   .     S
V271     V272    9.981   .     S
V271     Ti328    10.011   .     S
V271     V279    10.018   .     S
V272     Ti327    10.011   .     S
V272     V280    10.018   .     S
V273     V274    9.981   .     S
V273     Ti352    10.011   .     S
V274     Ti351    10.011   .     S
V275     V276    9.981   .     S
V275     Ti308    10.011   .     S
V276     Ti307    10.011   .     S
V277     V278    9.981   .     S
V277     Ti360    10.011   .     S
V278     Ti357    10.011   .     S
V279     V280    9.981   .     S
V279     Ti303    10.011   .     S
V280     Ti304    10.011   .     S
Er281     Er282    9.988   .     S
Er281     Ti283    9.991   .     S
Er281     Er290    9.996   .     S
Er281     Er293    9.998   1_455     S
Er282     Ti284    9.991   .     S
Er282     Er286    9.996   .     S
Er282     Er294    9.998   1_455     S
Ti283     Ti284    9.998   .     S
Ti283     Ti292    10.014   .     S
Ti284     Ti288    10.014   .     S
Er285     Er286    9.988   .     S
Er285     Ti287    9.991   .     S
Er285     Er289    9.996   .     S
Er285     Er330    9.998   .     S
Er286     Ti288    9.991   .     S
Er286     Er331    9.998   .     S
Ti287     Ti288    9.998   .     S
Ti287     Ti291    10.014   .     S
Er289     Er290    9.988   .     S
Er289     Ti291    9.991   .     S
Er289     Er310    9.998   .     S
Er290     Ti292    9.991   .     S
Er290     Er311    9.998   .     S
Ti291     Ti292    9.998   .     S
Er293     Er294    9.988   .     S
Er293     Ti296    9.991   .     S
Er293     Er302    9.996   .     S
Er293     Er281    9.998   1_655     S
Er294     Ti295    9.991   .     S
Er294     Er298    9.996   .     S
Er294     Er282    9.998   1_655     S
Ti295     Ti296    9.998   .     S
Ti295     Ti300    10.014   .     S
Ti296     Ti303    10.014   .     S
Er297     Er298    9.988   .     S
Er297     Ti299    9.991   .     S
Er297     Er301    9.996   .     S
Er297     Er349    9.998   .     S
Er298     Ti300    9.991   .     S
Er298     Er350    9.998   .     S
Ti299     Ti300    9.998   .     S
Ti299     Ti304    10.014   .     S
Er301     Er302    9.988   .     S
Er301     Ti304    9.991   .     S
Er301     Er325    9.998   .     S
Er302     Ti303    9.991   .     S
Er302     Er326    9.998   .     S
Ti303     Ti304    9.998   .     S
Er305     Er306    9.988   .     S
Er305     Ti308    9.991   .     S
Er305     Er313    9.996   .     S
Er305     Er362    9.998   .     S
Er306     Ti307    9.991   .     S
Er306     Er310    9.996   .     S
Er306     Er363    9.998   .     S
Ti307     Ti308    9.998   .     S
Ti307     Ti312    10.014   .     S
Ti308     Ti315    10.014   .     S
Ti309     Er311    9.991   .     S
Ti309     Ti312    9.998   .     S
Ti309     Ti316    10.014   .     S
Er310     Er311    9.988   .     S
Er310     Ti312    9.991   .     S
Er311     Er314    9.996   .     S
Er313     Er314    9.988   .     S
Er313     Ti315    9.991   .     S
Er313     Er321    9.998   1_455     S
Er314     Ti316    9.991   .     S
Er314     Er322    9.998   1_455     S
Ti315     Ti316    9.998   .     S
Ti315     V379    10.011   .     S
Ti316     V380    10.011   .     S
Er317     Er318    9.988   .     S
Er317     Ti320    9.991   .     S
Er317     Er325    9.996   .     S
Er317     Er370    9.998   .     S
Er318     Ti319    9.991   .     S
Er318     Er321    9.996   .     S
Er318     Er371    9.998   .     S
Ti319     Ti320    9.998   .     S
Ti319     Ti324    10.014   .     S
Ti320     Ti327    10.014   .     S
Er321     Er322    9.988   .     S
Er321     Ti324    9.991   .     S
Er321     Er313    9.998   1_655     S
Er322     Ti323    9.991   .     S
Er322     Er326    9.996   .     S
Er322     Er314    9.998   1_655     S
Ti323     Ti324    9.998   .     S
Ti323     Ti328    10.014   .     S
Er325     Er326    9.988   .     S
Er325     Ti327    9.991   .     S
Er326     Ti328    9.991   .     S
Ti327     Ti328    9.998   .     S
Ti329     Er331    9.991   .     S
Ti329     Ti332    9.998   .     S
Ti329     Ti335    10.014   .     S
Er330     Er331    9.988   .     S
Er330     Ti332    9.991   .     S
Er330     Er338    9.996   .     S
Er331     Er334    9.996   .     S
Ti332     Ti339    10.014   .     S
Er333     Er334    9.988   .     S
Er333     Ti336    9.991   .     S
Er333     Er337    9.996   .     S
Er333     Er345    9.998   1_455     S
Er334     Ti335    9.991   .     S
Er334     Er346    9.998   1_455     S
Ti335     Ti336    9.998   .     S
Ti335     V382    10.011   .     S
Ti336     V381    10.011   .     S
Ti336     Ti340    10.014   .     S
Er337     Er338    9.988   .     S
Er337     Ti340    9.991   .     S
Er337     Er358    9.998   .     S
Er338     Ti339    9.991   .     S
Er338     Er359    9.998   .     S
Ti339     Ti340    9.998   .     S
Er341     Er342    9.988   .     S
Er341     Ti343    9.991   .     S
Er341     Er349    9.996   .     S
Er341     Er375    9.998   .     S
Er342     Ti344    9.991   .     S
Er342     Er345    9.996   .     S
Er342     Er374    9.998   .     S
Ti343     Ti344    9.998   .     S
Ti343     Ti351    10.014   .     S
Ti344     Ti347    10.014   .     S
Er345     Er346    9.988   .     S
Er345     Ti347    9.991   .     S
Er345     Er333    9.998   1_655     S
Er346     Ti348    9.991   .     S
Er346     Er350    9.996   .     S
Er346     Er334    9.998   1_655     S
Ti347     Ti348    9.998   .     S
Ti348     Ti352    10.014   .     S
Er349     Er350    9.988   .     S
Er349     Ti351    9.991   .     S
Er350     Ti352    9.991   .     S
Ti351     Ti352    9.998   .     S
Er353     Er354    9.988   .     S
Er353     Ti355    9.991   .     S
Er353     Er358    9.996   .     S
Er353     Er366    9.998   1_455     S
Er354     Ti356    9.991   .     S
Er354     Er362    9.996   .     S
Er354     Er365    9.998   1_455     S
Ti355     Ti356    9.998   .     S
Ti355     Ti360    10.014   .     S
Ti356     Ti364    10.014   .     S
Ti357     Er359    9.991   .     S
Ti357     Ti360    9.998   .     S
Ti357     Ti361    10.014   .     S
Er358     Er359    9.988   .     S
Er358     Ti360    9.991   .     S
Er359     Er363    9.996   .     S
Ti361     Er363    9.991   .     S
Ti361     Ti364    9.998   .     S
Er362     Er363    9.988   .     S
Er362     Ti364    9.991   .     S
Er365     Er366    9.988   .     S
Er365     Ti367    9.991   .     S
Er365     Er371    9.996   .     S
Er365     Er354    9.998   1_655     S
Er366     Ti368    9.991   .     S
Er366     Er374    9.996   .     S
Er366     Er353    9.998   1_655     S
Ti367     Ti368    9.998   .     S
Ti367     Ti369    10.014   .     S
Ti368     Ti376    10.014   .     S
Ti369     Er371    9.991   .     S
Ti369     Ti372    9.998   .     S
Er370     Er371    9.988   .     S
Er370     Ti372    9.991   .     S
Er370     Er375    9.996   .     S
Ti372     Ti373    10.014   .     S
Ti373     Er375    9.991   .     S
Ti373     Ti376    9.998   .     S
Er374     Er375    9.988   .     S
Er374     Ti376    9.991   .     S
V377     V378    9.981   .     S
V377     Ti425    10.011   .     S
V377     V23    10.018   1_545     S
V378     Ti428    10.011   .     S
V378     V24    10.018   1_545     S
V379     V380    9.981   .     S
V379     Ti441    10.011   .     S
V379     V33    10.018   1_455     S
V380     Ti444    10.011   .     S
V380     V34    10.018   1_455     S
V381     V382    9.981   .     S
V381     Ti429    10.011   .     S
V381     V29    10.018   1_455     S
V382     Ti432    10.011   .     S
V382     V30    10.018   1_455     S
V383     V384    9.981   .     S
V383     Ti477    10.011   .     S
V383     V25    10.018   1_545     S
V384     Ti480    10.011   .     S
V384     V26    10.018   1_545     S
Er385     Er386    9.988   .     S
Er385     Ti387    9.991   .     S
Er385     Er389    9.996   .     S
Er385     Er402    9.998   1_545     S
Er386     Ti388    9.991   .     S
Er386     Er393    9.996   .     S
Er386     Er401    9.998   1_545     S
Ti387     Ti388    9.998   .     S
Ti387     Ti392    10.014   .     S
Ti388     Ti396    10.014   .     S
Er389     Er390    9.988   .     S
Er389     Ti392    9.991   .     S
Er389     Er474    9.998   1_556     S
Er390     Ti391    9.991   .     S
Er390     Er394    9.996   .     S
Er390     Er475    9.998   1_556     S
Ti391     Ti392    9.998   .     S
Ti391     Ti395    10.014   .     S
Er393     Er394    9.988   .     S
Er393     Ti396    9.991   .     S
Er393     Er430    9.998   1_655     S
Er394     Ti395    9.991   .     S
Er394     Er431    9.998   1_655     S
Ti395     Ti396    9.998   .     S
Er397     Er398    9.988   .     S
Er397     Ti400    9.991   .     S
Er397     Er406    9.996   .     S
Er397     Er446    9.998   1_556     S
Er398     Ti399    9.991   .     S
Er398     Er402    9.996   .     S
Er398     Er445    9.998   1_556     S
Ti399     Ti400    9.998   .     S
Ti399     Ti404    10.014   .     S
Ti400     Ti407    10.014   .     S
Er401     Er402    9.988   .     S
Er401     Ti403    9.991   .     S
Er401     Er405    9.996   .     S
Er401     Er386    9.998   1_565     S
Er402     Ti404    9.991   .     S
Er402     Er385    9.998   1_565     S
Ti403     Ti404    9.998   .     S
Ti403     Ti408    10.014   .     S
Er405     Er406    9.988   .     S
Er405     Ti408    9.991   .     S
Er405     Er409    9.998   1_655     S
Er406     Ti407    9.991   .     S
Er406     Er410    9.998   1_655     S
Ti407     Ti408    9.998   .     S
Er409     Er405    9.998   1_455     S
Er409     Er410    9.988   .     S
Er409     Ti411    9.991   .     S
Er409     Er417    9.996   .     S
Er410     Er406    9.998   1_455     S
Er410     Ti412    9.991   .     S
Er410     Er413    9.996   .     S
Ti411     Ti412    9.998   .     S
Ti411     Ti420    10.014   .     S
Ti412     Ti416    10.014   .     S
Er413     Er414    9.988   .     S
Er413     Ti416    9.991   .     S
Er413     Er438    9.998   1_556     S
Er414     Ti415    9.991   .     S
Er414     Er418    9.996   .     S
Er414     Er439    9.998   1_556     S
Ti415     Ti416    9.998   .     S
Ti415     Ti419    10.014   .     S
Er417     Er418    9.988   .     S
Er417     Ti420    9.991   .     S
Er417     Er426    9.998   1_565     S
Er418     Ti419    9.991   .     S
Er418     Er427    9.998   1_565     S
Ti419     Ti420    9.998   .     S
Er421     Er422    9.988   .     S
Er421     Ti424    9.991   .     S
Er421     Er431    9.996   .     S
Er421     Er459    9.998   1_556     S
Er422     Ti423    9.991   .     S
Er422     Er427    9.996   .     S
Er422     Er458    9.998   1_556     S
Ti423     Ti424    9.998   .     S
Ti423     Ti425    10.014   .     S
Ti424     Ti429    10.014   .     S
Ti425     Er427    9.991   .     S
Ti425     Ti428    9.998   .     S
Er426     Er417    9.998   1_545     S
Er426     Er427    9.988   .     S
Er426     Ti428    9.991   .     S
Er426     Er430    9.996   .     S
Er427     Er418    9.998   1_545     S
Ti428     Ti432    10.014   .     S
Ti429     Er431    9.991   .     S
Ti429     Ti432    9.998   .     S
Er430     Er393    9.998   1_455     S
Er430     Er431    9.988   .     S
Er430     Ti432    9.991   .     S
Er431     Er394    9.998   1_455     S
Er433     Er434    9.988   .     S
Er433     Ti435    9.991   .     S
Er433     Er443    9.996   .     S
Er433     Er462    9.998   1_565     S
Er434     Ti436    9.991   .     S
Er434     Er439    9.996   .     S
Er434     Er463    9.998   1_565     S
Ti435     Ti436    9.998   .     S
Ti435     Ti441    10.014   .     S
Ti436     Ti437    10.014   .     S
Ti437     Er439    9.991   .     S
Ti437     Ti440    9.998   .     S
Er438     Er413    9.998   1_554     S
Er438     Er439    9.988   .     S
Er438     Ti440    9.991   .     S
Er438     Er442    9.996   .     S
Er439     Er414    9.998   1_554     S
Ti440     Ti444    10.014   .     S
Ti441     Er443    9.991   .     S
Ti441     Ti444    9.998   .     S
Er442     Er443    9.988   .     S
Er442     Ti444    9.991   .     S
Er442     Er449    9.998   1_455     S
Er443     Er450    9.998   1_455     S
Er445     Er398    9.998   1_554     S
Er445     Er446    9.988   .     S
Er445     Ti448    9.991   .     S
Er445     Er453    9.996   .     S
Er446     Er397    9.998   1_554     S
Er446     Ti447    9.991   .     S
Er446     Er449    9.996   .     S
Ti447     Ti448    9.998   .     S
Ti447     Ti452    10.014   .     S
Ti448     Ti456    10.014   .     S
Er449     Er450    9.988   .     S
Er449     Ti452    9.991   .     S
Er449     Er442    9.998   1_655     S
Er450     Ti451    9.991   .     S
Er450     Er454    9.996   .     S
Er450     Er443    9.998   1_655     S
Ti451     Ti452    9.998   .     S
Ti451     Ti455    10.014   .     S
Er453     Er454    9.988   .     S
Er453     Ti456    9.991   .     S
Er453     Er478    9.998   1_565     S
Er454     Ti455    9.991   .     S
Er454     Er479    9.998   1_565     S
Ti455     Ti456    9.998   .     S
Ti457     Er458    9.991   .     S
Ti457     Ti460    9.998   .     S
Ti457     Ti464    10.014   .     S
Er458     Er422    9.998   1_554     S
Er458     Er459    9.988   .     S
Er458     Er463    9.996   .     S
Er459     Er421    9.998   1_554     S
Er459     Ti460    9.991   .     S
Er459     Er467    9.996   .     S
Ti460     Ti465    10.014   .     S
Ti461     Er462    9.991   .     S
Ti461     Ti464    9.998   .     S
Ti461     Ti468    10.014   .     S
Er462     Er433    9.998   1_545     S
Er462     Er463    9.988   .     S
Er462     Er466    9.996   .     S
Er463     Er434    9.998   1_545     S
Er463     Ti464    9.991   .     S
Ti465     Er467    9.991   .     S
Ti465     Ti468    9.998   .     S
Er466     Er467    9.988   .     S
Er466     Ti468    9.991   .     S
Er466     Er469    9.998   1_455     S
Er467     Er470    9.998   1_455     S
Er469     Er470    9.988   .     S
Er469     Ti472    9.991   .     S
Er469     Er479    9.996   .     S
Er469     Er466    9.998   1_655     S
Er470     Ti471    9.991   .     S
Er470     Er475    9.996   .     S
Er470     Er467    9.998   1_655     S
Ti471     Ti472    9.998   .     S
Ti471     Ti473    10.014   .     S
Ti472     Ti477    10.014   .     S
Ti473     Er475    9.991   .     S
Ti473     Ti476    9.998   .     S
Er474     Er389    9.998   1_554     S
Er474     Er475    9.988   .     S
Er474     Ti476    9.991   .     S
Er474     Er478    9.996   .     S
Er475     Er390    9.998   1_554     S
Ti476     Ti480    10.014   .     S
Ti477     Er479    9.991   .     S
Ti477     Ti480    9.998   .     S
Er478     Er453    9.998   1_545     S
Er478     Er479    9.988   .     S
Er478     Ti480    9.991   .     S
Er479     Er454    9.998   1_545     S
