data_ucb
_audit_creation_date              2020-02-02
_audit_creation_method            'Pymatgen'
_symmetry_space_group_name_H-M    'P1'
_symmetry_Int_Tables_number       1
loop_
_symmetry_equiv_pos_as_xyz
  x,y,z
_cell_length_a                    122.7564
_cell_length_b                    122.7564
_cell_length_c                    122.7564
_cell_angle_alpha                 90.0
_cell_angle_beta                 90.0
_cell_angle_gamma                 90.0
loop_
_atom_site_label
_atom_site_type_symbol
_atom_site_fract_x
_atom_site_fract_y
_atom_site_fract_z
Ti1     Ti     0.5407   0.75   0.8076
Ti2     Ti     0.5407   0.6924   0.75
Ti3     Ti     0.5407   0.75   0.6924
Ti4     Ti     0.5407   0.8076   0.75
Ti5     Ti     0.4593   0.6924   0.75
Ti6     Ti     0.4593   0.75   0.6924
Ti7     Ti     0.4593   0.75   0.8076
Ti8     Ti     0.4593   0.8076   0.75
Ti9     Ti     0.75   0.8076   0.5407
Ti10     Ti     0.6924   0.75   0.5407
Ti11     Ti     0.75   0.6924   0.5407
Ti12     Ti     0.8076   0.75   0.5407
Ti13     Ti     0.6924   0.75   0.4593
Ti14     Ti     0.75   0.6924   0.4593
Ti15     Ti     0.75   0.8076   0.4593
Ti16     Ti     0.8076   0.75   0.4593
Ti17     Ti     0.6924   0.5407   0.75
Ti18     Ti     0.75   0.5407   0.6924
Ti19     Ti     0.75   0.5407   0.8076
Ti20     Ti     0.8076   0.5407   0.75
Ti21     Ti     0.6924   0.4593   0.75
Ti22     Ti     0.75   0.4593   0.6924
Ti23     Ti     0.75   0.4593   0.8076
Ti24     Ti     0.8076   0.4593   0.75
Ti25     Ti     0.75   0.8076   0.9593
Ti26     Ti     0.6924   0.75   0.9593
Ti27     Ti     0.8076   0.75   0.9593
Ti28     Ti     0.75   0.6924   0.9593
Ti29     Ti     0.75   0.8076   0.0407
Ti30     Ti     0.6924   0.75   0.0407
Ti31     Ti     0.8076   0.75   0.0407
Ti32     Ti     0.75   0.6924   0.0407
Ti33     Ti     0.9593   0.75   0.8076
Ti34     Ti     0.9593   0.6924   0.75
Ti35     Ti     0.9593   0.8076   0.75
Ti36     Ti     0.9593   0.75   0.6924
Ti37     Ti     0.0407   0.8076   0.75
Ti38     Ti     0.0407   0.75   0.6924
Ti39     Ti     0.0407   0.75   0.8076
Ti40     Ti     0.0407   0.6924   0.75
Ti41     Ti     0.8076   0.9593   0.75
Ti42     Ti     0.75   0.9593   0.6924
Ti43     Ti     0.75   0.9593   0.8076
Ti44     Ti     0.6924   0.9593   0.75
Ti45     Ti     0.8076   0.0407   0.75
Ti46     Ti     0.75   0.0407   0.6924
Ti47     Ti     0.75   0.0407   0.8076
Ti48     Ti     0.6924   0.0407   0.75
Ti49     Ti     0.6924   0.5407   0.25
Ti50     Ti     0.75   0.5407   0.3076
Ti51     Ti     0.75   0.5407   0.1924
Ti52     Ti     0.8076   0.5407   0.25
Ti53     Ti     0.6924   0.4593   0.25
Ti54     Ti     0.75   0.4593   0.3076
Ti55     Ti     0.75   0.4593   0.1924
Ti56     Ti     0.8076   0.4593   0.25
Ti57     Ti     0.5407   0.75   0.1924
Ti58     Ti     0.5407   0.6924   0.25
Ti59     Ti     0.5407   0.75   0.3076
Ti60     Ti     0.5407   0.8076   0.25
Ti61     Ti     0.4593   0.6924   0.25
Ti62     Ti     0.4593   0.75   0.3076
Ti63     Ti     0.4593   0.75   0.1924
Ti64     Ti     0.4593   0.8076   0.25
Ti65     Ti     0.5407   0.25   0.6924
Ti66     Ti     0.5407   0.25   0.8076
Ti67     Ti     0.5407   0.3076   0.75
Ti68     Ti     0.5407   0.1924   0.75
Ti69     Ti     0.4593   0.25   0.6924
Ti70     Ti     0.4593   0.25   0.8076
Ti71     Ti     0.4593   0.3076   0.75
Ti72     Ti     0.4593   0.1924   0.75
Ti73     Ti     0.25   0.5407   0.8076
Ti74     Ti     0.25   0.5407   0.6924
Ti75     Ti     0.3076   0.5407   0.75
Ti76     Ti     0.1924   0.5407   0.75
Ti77     Ti     0.25   0.4593   0.6924
Ti78     Ti     0.25   0.4593   0.8076
Ti79     Ti     0.3076   0.4593   0.75
Ti80     Ti     0.1924   0.4593   0.75
Ti81     Ti     0.25   0.9593   0.6924
Ti82     Ti     0.1924   0.9593   0.75
Ti83     Ti     0.3076   0.9593   0.75
Ti84     Ti     0.25   0.9593   0.8076
Ti85     Ti     0.3076   0.0407   0.75
Ti86     Ti     0.25   0.0407   0.6924
Ti87     Ti     0.1924   0.0407   0.75
Ti88     Ti     0.25   0.0407   0.8076
Ti89     Ti     0.75   0.9593   0.3076
Ti90     Ti     0.6924   0.9593   0.25
Ti91     Ti     0.75   0.9593   0.1924
Ti92     Ti     0.8076   0.9593   0.25
Ti93     Ti     0.6924   0.0407   0.25
Ti94     Ti     0.75   0.0407   0.1924
Ti95     Ti     0.75   0.0407   0.3076
Ti96     Ti     0.8076   0.0407   0.25
Ti97     Ti     0.9593   0.3076   0.75
Ti98     Ti     0.9593   0.25   0.6924
Ti99     Ti     0.9593   0.1924   0.75
Ti100     Ti     0.9593   0.25   0.8076
Ti101     Ti     0.0407   0.3076   0.75
Ti102     Ti     0.0407   0.25   0.6924
Ti103     Ti     0.0407   0.1924   0.75
Ti104     Ti     0.0407   0.25   0.8076
Ti105     Ti     0.9593   0.6924   0.25
Ti106     Ti     0.9593   0.75   0.1924
Ti107     Ti     0.9593   0.75   0.3076
Ti108     Ti     0.9593   0.8076   0.25
Ti109     Ti     0.0407   0.6924   0.25
Ti110     Ti     0.0407   0.75   0.1924
Ti111     Ti     0.0407   0.75   0.3076
Ti112     Ti     0.0407   0.8076   0.25
Er113     Er     0.4122   0.297   0.6454
Er114     Er     0.4122   0.3546   0.703
Er115     Er     0.297   0.4122   0.6454
Er116     Er     0.3546   0.4122   0.703
Er117     Er     0.4122   0.703   0.6454
Er118     Er     0.4122   0.6454   0.703
Er119     Er     0.703   0.6454   0.4122
Er120     Er     0.6454   0.703   0.4122
Er121     Er     0.703   0.4122   0.6454
Er122     Er     0.6454   0.4122   0.703
V123     V     0.4017   0.5407   0.6559
V124     V     0.4593   0.5983   0.6559
V125     V     0.4593   0.4017   0.6559
V126     V     0.4017   0.4593   0.6559
V127     V     0.5983   0.5407   0.6559
V128     V     0.5407   0.5983   0.6559
V129     V     0.5407   0.4017   0.6559
V130     V     0.5983   0.4593   0.6559
Er131     Er     0.5878   0.703   0.6454
Er132     Er     0.5878   0.6454   0.703
V133     V     0.4593   0.6559   0.4017
V134     V     0.4017   0.6559   0.4593
V135     V     0.5407   0.6559   0.4017
V136     V     0.5983   0.6559   0.4593
V137     V     0.5983   0.6559   0.5407
V138     V     0.5407   0.6559   0.5983
V139     V     0.4017   0.6559   0.5407
V140     V     0.4593   0.6559   0.5983
Er141     Er     0.703   0.5878   0.6454
Er142     Er     0.6454   0.5878   0.703
Er143     Er     0.703   0.6454   0.5878
Er144     Er     0.6454   0.703   0.5878
V145     V     0.6559   0.4593   0.4017
V146     V     0.6559   0.4017   0.4593
V147     V     0.6559   0.4017   0.5407
V148     V     0.6559   0.4593   0.5983
V149     V     0.6559   0.5983   0.5407
V150     V     0.6559   0.5407   0.5983
V151     V     0.6559   0.5407   0.4017
V152     V     0.6559   0.5983   0.4593
Er153     Er     0.4122   0.703   0.3546
Er154     Er     0.4122   0.6454   0.297
Er155     Er     0.703   0.4122   0.3546
Er156     Er     0.6454   0.4122   0.297
Er157     Er     0.703   0.3546   0.4122
Er158     Er     0.6454   0.297   0.4122
Er159     Er     0.297   0.6454   0.4122
Er160     Er     0.3546   0.703   0.4122
Er161     Er     0.4122   0.3546   0.297
Er162     Er     0.4122   0.297   0.3546
Er163     Er     0.3546   0.297   0.4122
Er164     Er     0.297   0.3546   0.4122
Er165     Er     0.3546   0.4122   0.297
Er166     Er     0.297   0.4122   0.3546
Er167     Er     0.703   0.5878   0.3546
Er168     Er     0.6454   0.5878   0.297
Er169     Er     0.5878   0.703   0.3546
Er170     Er     0.5878   0.6454   0.297
Er171     Er     0.5878   0.297   0.6454
Er172     Er     0.5878   0.3546   0.703
Er173     Er     0.703   0.3546   0.5878
Er174     Er     0.6454   0.297   0.5878
Er175     Er     0.297   0.6454   0.5878
Er176     Er     0.3546   0.703   0.5878
Er177     Er     0.297   0.5878   0.6454
Er178     Er     0.3546   0.5878   0.703
V179     V     0.5407   0.4017   0.3441
V180     V     0.5983   0.4593   0.3441
V181     V     0.4017   0.4593   0.3441
V182     V     0.4593   0.4017   0.3441
V183     V     0.5407   0.5983   0.3441
V184     V     0.5983   0.5407   0.3441
V185     V     0.4017   0.5407   0.3441
V186     V     0.4593   0.5983   0.3441
Er187     Er     0.5878   0.3546   0.297
Er188     Er     0.5878   0.297   0.3546
V189     V     0.4593   0.3441   0.4017
V190     V     0.4017   0.3441   0.4593
V191     V     0.5407   0.3441   0.4017
V192     V     0.5983   0.3441   0.4593
V193     V     0.5407   0.3441   0.5983
V194     V     0.5983   0.3441   0.5407
V195     V     0.4017   0.3441   0.5407
V196     V     0.4593   0.3441   0.5983
Er197     Er     0.3546   0.5878   0.297
Er198     Er     0.297   0.5878   0.3546
V199     V     0.3441   0.4593   0.4017
V200     V     0.3441   0.4017   0.4593
V201     V     0.3441   0.5407   0.4017
V202     V     0.3441   0.5983   0.4593
V203     V     0.3441   0.5407   0.5983
V204     V     0.3441   0.5983   0.5407
V205     V     0.3441   0.4017   0.5407
V206     V     0.3441   0.4593   0.5983
Er207     Er     0.3546   0.297   0.5878
Er208     Er     0.297   0.3546   0.5878
Ti209     Ti     0.6924   0.25   0.5407
Ti210     Ti     0.75   0.3076   0.5407
Ti211     Ti     0.75   0.1924   0.5407
Ti212     Ti     0.8076   0.25   0.5407
Ti213     Ti     0.75   0.1924   0.4593
Ti214     Ti     0.6924   0.25   0.4593
Ti215     Ti     0.75   0.3076   0.4593
Ti216     Ti     0.8076   0.25   0.4593
Ti217     Ti     0.25   0.6924   0.5407
Ti218     Ti     0.25   0.8076   0.5407
Ti219     Ti     0.3076   0.75   0.5407
Ti220     Ti     0.1924   0.75   0.5407
Ti221     Ti     0.25   0.6924   0.4593
Ti222     Ti     0.25   0.8076   0.4593
Ti223     Ti     0.3076   0.75   0.4593
Ti224     Ti     0.1924   0.75   0.4593
Ti225     Ti     0.6924   0.25   0.9593
Ti226     Ti     0.75   0.1924   0.9593
Ti227     Ti     0.75   0.3076   0.9593
Ti228     Ti     0.8076   0.25   0.9593
Ti229     Ti     0.6924   0.25   0.0407
Ti230     Ti     0.75   0.1924   0.0407
Ti231     Ti     0.75   0.3076   0.0407
Ti232     Ti     0.8076   0.25   0.0407
Ti233     Ti     0.3076   0.75   0.9593
Ti234     Ti     0.25   0.6924   0.9593
Ti235     Ti     0.1924   0.75   0.9593
Ti236     Ti     0.25   0.8076   0.9593
Ti237     Ti     0.3076   0.75   0.0407
Ti238     Ti     0.25   0.6924   0.0407
Ti239     Ti     0.1924   0.75   0.0407
Ti240     Ti     0.25   0.8076   0.0407
Ti241     Ti     0.5407   0.25   0.3076
Ti242     Ti     0.5407   0.3076   0.25
Ti243     Ti     0.5407   0.1924   0.25
Ti244     Ti     0.5407   0.25   0.1924
Ti245     Ti     0.4593   0.25   0.3076
Ti246     Ti     0.4593   0.3076   0.25
Ti247     Ti     0.4593   0.1924   0.25
Ti248     Ti     0.4593   0.25   0.1924
Ti249     Ti     0.25   0.3076   0.5407
Ti250     Ti     0.3076   0.25   0.5407
Ti251     Ti     0.1924   0.25   0.5407
Ti252     Ti     0.25   0.1924   0.5407
Ti253     Ti     0.25   0.3076   0.4593
Ti254     Ti     0.3076   0.25   0.4593
Ti255     Ti     0.1924   0.25   0.4593
Ti256     Ti     0.25   0.1924   0.4593
Ti257     Ti     0.25   0.5407   0.3076
Ti258     Ti     0.3076   0.5407   0.25
Ti259     Ti     0.1924   0.5407   0.25
Ti260     Ti     0.25   0.5407   0.1924
Ti261     Ti     0.25   0.4593   0.3076
Ti262     Ti     0.3076   0.4593   0.25
Ti263     Ti     0.1924   0.4593   0.25
Ti264     Ti     0.25   0.4593   0.1924
Er265     Er     0.4122   0.203   0.8546
Er266     Er     0.4122   0.1454   0.797
Er267     Er     0.4122   0.797   0.1454
Er268     Er     0.4122   0.8546   0.203
Er269     Er     0.3546   0.9122   0.203
Er270     Er     0.297   0.9122   0.1454
Er271     Er     0.3546   0.203   0.9122
Er272     Er     0.297   0.1454   0.9122
Er273     Er     0.3546   0.797   0.9122
Er274     Er     0.297   0.8546   0.9122
Er275     Er     0.3546   0.9122   0.797
Er276     Er     0.297   0.9122   0.8546
Er277     Er     0.6454   0.9122   0.797
Er278     Er     0.703   0.9122   0.8546
Er279     Er     0.6454   0.797   0.9122
Er280     Er     0.703   0.8546   0.9122
Er281     Er     0.4122   0.203   0.1454
Er282     Er     0.4122   0.1454   0.203
Er283     Er     0.6454   0.797   0.0878
Er284     Er     0.703   0.8546   0.0878
Er285     Er     0.703   0.9122   0.1454
Er286     Er     0.6454   0.9122   0.203
Er287     Er     0.703   0.1454   0.9122
Er288     Er     0.6454   0.203   0.9122
Er289     Er     0.703   0.0878   0.8546
Er290     Er     0.6454   0.0878   0.797
V291     V     0.6559   0.0407   0.0983
V292     V     0.6559   0.0983   0.0407
V293     V     0.6559   0.9593   0.0983
V294     V     0.6559   0.9017   0.0407
V295     V     0.6559   0.9593   0.9017
V296     V     0.6559   0.9017   0.9593
V297     V     0.6559   0.0983   0.9593
V298     V     0.6559   0.0407   0.9017
Er299     Er     0.5878   0.203   0.8546
Er300     Er     0.5878   0.1454   0.797
Er301     Er     0.703   0.0878   0.1454
Er302     Er     0.6454   0.0878   0.203
Er303     Er     0.4122   0.797   0.8546
Er304     Er     0.4122   0.8546   0.797
V305     V     0.5407   0.0983   0.8441
V306     V     0.5983   0.0407   0.8441
V307     V     0.4017   0.0407   0.8441
V308     V     0.4593   0.0983   0.8441
V309     V     0.5407   0.9017   0.8441
V310     V     0.5983   0.9593   0.8441
V311     V     0.4017   0.9593   0.8441
V312     V     0.4593   0.9017   0.8441
Er313     Er     0.5878   0.797   0.8546
Er314     Er     0.5878   0.8546   0.797
V315     V     0.4017   0.8441   0.9593
V316     V     0.4593   0.8441   0.9017
V317     V     0.4017   0.8441   0.0407
V318     V     0.4593   0.8441   0.0983
V319     V     0.5983   0.8441   0.9593
V320     V     0.5407   0.8441   0.9017
V321     V     0.5407   0.8441   0.0983
V322     V     0.5983   0.8441   0.0407
Er323     Er     0.5878   0.797   0.1454
Er324     Er     0.5878   0.8546   0.203
Er325     Er     0.703   0.1454   0.0878
Er326     Er     0.6454   0.203   0.0878
Er327     Er     0.3546   0.203   0.0878
Er328     Er     0.297   0.1454   0.0878
Er329     Er     0.3546   0.0878   0.203
Er330     Er     0.297   0.0878   0.1454
Er331     Er     0.3546   0.0878   0.797
Er332     Er     0.297   0.0878   0.8546
Er333     Er     0.3546   0.797   0.0878
Er334     Er     0.297   0.8546   0.0878
V335     V     0.3441   0.9593   0.0983
V336     V     0.3441   0.9017   0.0407
V337     V     0.3441   0.0983   0.0407
V338     V     0.3441   0.0407   0.0983
V339     V     0.3441   0.9593   0.9017
V340     V     0.3441   0.9017   0.9593
V341     V     0.3441   0.0983   0.9593
V342     V     0.3441   0.0407   0.9017
V343     V     0.4017   0.1559   0.9593
V344     V     0.4593   0.1559   0.9017
V345     V     0.4017   0.1559   0.0407
V346     V     0.4593   0.1559   0.0983
V347     V     0.5983   0.1559   0.9593
V348     V     0.5407   0.1559   0.9017
V349     V     0.5407   0.1559   0.0983
V350     V     0.5983   0.1559   0.0407
Er351     Er     0.5878   0.203   0.1454
Er352     Er     0.5878   0.1454   0.203
V353     V     0.5407   0.0983   0.1559
V354     V     0.5983   0.0407   0.1559
V355     V     0.5407   0.9017   0.1559
V356     V     0.5983   0.9593   0.1559
V357     V     0.4017   0.0407   0.1559
V358     V     0.4593   0.0983   0.1559
V359     V     0.4017   0.9593   0.1559
V360     V     0.4593   0.9017   0.1559
Ti361     Ti     0.25   0.3076   0.9593
Ti362     Ti     0.3076   0.25   0.9593
Ti363     Ti     0.1924   0.25   0.9593
Ti364     Ti     0.25   0.1924   0.9593
Ti365     Ti     0.25   0.3076   0.0407
Ti366     Ti     0.3076   0.25   0.0407
Ti367     Ti     0.1924   0.25   0.0407
Ti368     Ti     0.25   0.1924   0.0407
Er369     Er     0.203   0.4122   0.8546
Er370     Er     0.1454   0.4122   0.797
Er371     Er     0.797   0.4122   0.1454
Er372     Er     0.8546   0.4122   0.203
Er373     Er     0.203   0.3546   0.9122
Er374     Er     0.1454   0.297   0.9122
Er375     Er     0.9122   0.3546   0.203
Er376     Er     0.9122   0.297   0.1454
Er377     Er     0.797   0.3546   0.9122
Er378     Er     0.8546   0.297   0.9122
Er379     Er     0.9122   0.3546   0.797
Er380     Er     0.9122   0.297   0.8546
Er381     Er     0.797   0.6454   0.9122
Er382     Er     0.8546   0.703   0.9122
Er383     Er     0.9122   0.6454   0.797
Er384     Er     0.9122   0.703   0.8546
Er385     Er     0.203   0.4122   0.1454
Er386     Er     0.1454   0.4122   0.203
Er387     Er     0.9122   0.703   0.1454
Er388     Er     0.9122   0.6454   0.203
Er389     Er     0.797   0.6454   0.0878
Er390     Er     0.8546   0.703   0.0878
Er391     Er     0.1454   0.703   0.9122
Er392     Er     0.203   0.6454   0.9122
Er393     Er     0.0878   0.703   0.8546
Er394     Er     0.0878   0.6454   0.797
V395     V     0.9593   0.6559   0.0983
V396     V     0.9017   0.6559   0.0407
V397     V     0.0983   0.6559   0.0407
V398     V     0.0407   0.6559   0.0983
V399     V     0.9593   0.6559   0.9017
V400     V     0.9017   0.6559   0.9593
V401     V     0.0983   0.6559   0.9593
V402     V     0.0407   0.6559   0.9017
Er403     Er     0.203   0.5878   0.8546
Er404     Er     0.1454   0.5878   0.797
Er405     Er     0.797   0.4122   0.8546
Er406     Er     0.8546   0.4122   0.797
V407     V     0.0407   0.4017   0.8441
V408     V     0.0983   0.4593   0.8441
V409     V     0.9593   0.4017   0.8441
V410     V     0.9017   0.4593   0.8441
V411     V     0.9017   0.5407   0.8441
V412     V     0.9593   0.5983   0.8441
V413     V     0.0983   0.5407   0.8441
V414     V     0.0407   0.5983   0.8441
Er415     Er     0.797   0.5878   0.8546
Er416     Er     0.8546   0.5878   0.797
V417     V     0.8441   0.4017   0.9593
V418     V     0.8441   0.4593   0.9017
V419     V     0.8441   0.4017   0.0407
V420     V     0.8441   0.4593   0.0983
V421     V     0.8441   0.5983   0.9593
V422     V     0.8441   0.5407   0.9017
V423     V     0.8441   0.5407   0.0983
V424     V     0.8441   0.5983   0.0407
Er425     Er     0.797   0.5878   0.1454
Er426     Er     0.8546   0.5878   0.203
Er427     Er     0.0878   0.703   0.1454
Er428     Er     0.0878   0.6454   0.203
Er429     Er     0.1454   0.703   0.0878
Er430     Er     0.203   0.6454   0.0878
Er431     Er     0.0878   0.3546   0.203
Er432     Er     0.0878   0.297   0.1454
Er433     Er     0.203   0.3546   0.0878
Er434     Er     0.1454   0.297   0.0878
Er435     Er     0.797   0.3546   0.0878
Er436     Er     0.8546   0.297   0.0878
Er437     Er     0.0878   0.3546   0.797
Er438     Er     0.0878   0.297   0.8546
V439     V     0.0983   0.3441   0.9593
V440     V     0.0407   0.3441   0.9017
V441     V     0.0407   0.3441   0.0983
V442     V     0.0983   0.3441   0.0407
V443     V     0.9017   0.3441   0.9593
V444     V     0.9593   0.3441   0.9017
V445     V     0.9593   0.3441   0.0983
V446     V     0.9017   0.3441   0.0407
V447     V     0.1559   0.4017   0.9593
V448     V     0.1559   0.4593   0.9017
V449     V     0.1559   0.4017   0.0407
V450     V     0.1559   0.4593   0.0983
V451     V     0.1559   0.5983   0.9593
V452     V     0.1559   0.5407   0.9017
V453     V     0.1559   0.5407   0.0983
V454     V     0.1559   0.5983   0.0407
Er455     Er     0.203   0.5878   0.1454
Er456     Er     0.1454   0.5878   0.203
V457     V     0.9593   0.4017   0.1559
V458     V     0.9017   0.4593   0.1559
V459     V     0.9593   0.5983   0.1559
V460     V     0.9017   0.5407   0.1559
V461     V     0.0407   0.4017   0.1559
V462     V     0.0983   0.4593   0.1559
V463     V     0.0983   0.5407   0.1559
V464     V     0.0407   0.5983   0.1559
Ti465     Ti     0.9593   0.25   0.3076
Ti466     Ti     0.9593   0.3076   0.25
Ti467     Ti     0.9593   0.1924   0.25
Ti468     Ti     0.9593   0.25   0.1924
Ti469     Ti     0.0407   0.25   0.3076
Ti470     Ti     0.0407   0.3076   0.25
Ti471     Ti     0.0407   0.1924   0.25
Ti472     Ti     0.0407   0.25   0.1924
Ti473     Ti     0.25   0.9593   0.3076
Ti474     Ti     0.3076   0.9593   0.25
Ti475     Ti     0.1924   0.9593   0.25
Ti476     Ti     0.25   0.9593   0.1924
Ti477     Ti     0.25   0.0407   0.3076
Ti478     Ti     0.3076   0.0407   0.25
Ti479     Ti     0.1924   0.0407   0.25
Ti480     Ti     0.25   0.0407   0.1924
Er481     Er     0.203   0.8546   0.4122
Er482     Er     0.1454   0.797   0.4122
Er483     Er     0.797   0.1454   0.4122
Er484     Er     0.8546   0.203   0.4122
Er485     Er     0.9122   0.203   0.3546
Er486     Er     0.9122   0.1454   0.297
Er487     Er     0.203   0.9122   0.3546
Er488     Er     0.1454   0.9122   0.297
Er489     Er     0.797   0.9122   0.3546
Er490     Er     0.8546   0.9122   0.297
Er491     Er     0.9122   0.797   0.3546
Er492     Er     0.9122   0.8546   0.297
Er493     Er     0.9122   0.797   0.6454
Er494     Er     0.9122   0.8546   0.703
Er495     Er     0.797   0.9122   0.6454
Er496     Er     0.8546   0.9122   0.703
Er497     Er     0.203   0.1454   0.4122
Er498     Er     0.1454   0.203   0.4122
Er499     Er     0.1454   0.9122   0.703
Er500     Er     0.203   0.9122   0.6454
Er501     Er     0.9122   0.1454   0.703
Er502     Er     0.9122   0.203   0.6454
Er503     Er     0.1454   0.0878   0.703
Er504     Er     0.203   0.0878   0.6454
Er505     Er     0.0878   0.1454   0.703
Er506     Er     0.0878   0.203   0.6454
V507     V     0.9593   0.0983   0.6559
V508     V     0.9017   0.0407   0.6559
V509     V     0.0983   0.0407   0.6559
V510     V     0.0407   0.0983   0.6559
V511     V     0.9593   0.9017   0.6559
V512     V     0.9017   0.9593   0.6559
V513     V     0.0983   0.9593   0.6559
V514     V     0.0407   0.9017   0.6559
Er515     Er     0.203   0.0878   0.3546
Er516     Er     0.1454   0.0878   0.297
Er517     Er     0.0878   0.203   0.3546
Er518     Er     0.0878   0.1454   0.297
Er519     Er     0.0878   0.797   0.3546
Er520     Er     0.0878   0.8546   0.297
Er521     Er     0.797   0.0878   0.3546
Er522     Er     0.8546   0.0878   0.297
V523     V     0.9593   0.0983   0.3441
V524     V     0.9017   0.0407   0.3441
V525     V     0.9593   0.9017   0.3441
V526     V     0.9017   0.9593   0.3441
V527     V     0.0407   0.0983   0.3441
V528     V     0.0983   0.0407   0.3441
V529     V     0.0983   0.9593   0.3441
V530     V     0.0407   0.9017   0.3441
Er531     Er     0.8546   0.0878   0.703
Er532     Er     0.797   0.0878   0.6454
Er533     Er     0.0878   0.8546   0.703
Er534     Er     0.0878   0.797   0.6454
Er535     Er     0.203   0.8546   0.5878
Er536     Er     0.1454   0.797   0.5878
Er537     Er     0.797   0.8546   0.4122
Er538     Er     0.8546   0.797   0.4122
V539     V     0.9593   0.8441   0.4017
V540     V     0.9017   0.8441   0.4593
V541     V     0.0407   0.8441   0.4017
V542     V     0.0983   0.8441   0.4593
V543     V     0.9017   0.8441   0.5407
V544     V     0.9593   0.8441   0.5983
V545     V     0.0983   0.8441   0.5407
V546     V     0.0407   0.8441   0.5983
Er547     Er     0.797   0.8546   0.5878
Er548     Er     0.8546   0.797   0.5878
V549     V     0.8441   0.9593   0.4017
V550     V     0.8441   0.9017   0.4593
V551     V     0.8441   0.0407   0.4017
V552     V     0.8441   0.0983   0.4593
V553     V     0.8441   0.9593   0.5983
V554     V     0.8441   0.9017   0.5407
V555     V     0.8441   0.0983   0.5407
V556     V     0.8441   0.0407   0.5983
Er557     Er     0.797   0.1454   0.5878
Er558     Er     0.8546   0.203   0.5878
V559     V     0.1559   0.0407   0.4017
V560     V     0.1559   0.0983   0.4593
V561     V     0.1559   0.9593   0.4017
V562     V     0.1559   0.9017   0.4593
V563     V     0.1559   0.9593   0.5983
V564     V     0.1559   0.9017   0.5407
V565     V     0.1559   0.0983   0.5407
V566     V     0.1559   0.0407   0.5983
Er567     Er     0.203   0.1454   0.5878
Er568     Er     0.1454   0.203   0.5878
V569     V     0.0983   0.1559   0.5407
V570     V     0.0407   0.1559   0.5983
V571     V     0.9017   0.1559   0.5407
V572     V     0.9593   0.1559   0.5983
V573     V     0.0407   0.1559   0.4017
V574     V     0.0983   0.1559   0.4593
V575     V     0.9593   0.1559   0.4017
V576     V     0.9017   0.1559   0.4593
loop_
_geom_bond_atom_site_label_1
_geom_bond_atom_site_label_2
_geom_bond_distance
_geom_bond_site_symmetry_2
_ccdc_geom_bond_type
Ti1     Ti4    10.0   .     S
Ti1     Ti2    10.0   .     S
Ti1     Ti7    10.0   .     S
Ti1     Er313    10.0   .     S
Ti2     Ti3    10.0   .     S
Ti2     Ti5    10.0   .     S
Ti2     Er132    10.0   .     S
Ti3     Ti4    10.0   .     S
Ti3     Ti6    10.0   .     S
Ti3     Er131    10.0   .     S
Ti4     Ti8    10.0   .     S
Ti4     Er314    10.0   .     S
Ti5     Ti7    10.0   .     S
Ti5     Ti6    10.0   .     S
Ti5     Er118    10.0   .     S
Ti6     Ti8    10.0   .     S
Ti6     Er117    10.0   .     S
Ti7     Ti8    10.0   .     S
Ti7     Er303    10.0   .     S
Ti8     Er304    10.0   .     S
Ti9     Ti12    10.0   .     S
Ti9     Ti10    10.0   .     S
Ti9     Ti15    10.0   .     S
Ti9     Er547    10.0   .     S
Ti10     Ti11    10.0   .     S
Ti10     Ti13    10.0   .     S
Ti10     Er144    10.0   .     S
Ti11     Ti12    10.0   .     S
Ti11     Ti14    10.0   .     S
Ti11     Er143    10.0   .     S
Ti12     Ti16    10.0   .     S
Ti12     Er548    10.0   .     S
Ti13     Ti15    10.0   .     S
Ti13     Ti14    10.0   .     S
Ti13     Er120    10.0   .     S
Ti14     Ti16    10.0   .     S
Ti14     Er119    10.0   .     S
Ti15     Ti16    10.0   .     S
Ti15     Er537    10.0   .     S
Ti16     Er538    10.0   .     S
Ti17     Ti19    10.0   .     S
Ti17     Ti18    10.0   .     S
Ti17     Ti21    10.0   .     S
Ti17     Er142    10.0   .     S
Ti18     Ti20    10.0   .     S
Ti18     Ti22    10.0   .     S
Ti18     Er141    10.0   .     S
Ti19     Ti20    10.0   .     S
Ti19     Ti23    10.0   .     S
Ti19     Er415    10.0   .     S
Ti20     Ti24    10.0   .     S
Ti20     Er416    10.0   .     S
Ti21     Ti23    10.0   .     S
Ti21     Ti22    10.0   .     S
Ti21     Er122    10.0   .     S
Ti22     Ti24    10.0   .     S
Ti22     Er121    10.0   .     S
Ti23     Ti24    10.0   .     S
Ti23     Er405    10.0   .     S
Ti24     Er406    10.0   .     S
Ti25     Ti26    10.0   .     S
Ti25     Ti27    10.0   .     S
Ti25     Ti29    10.0   1_556     S
Ti25     Er280    10.0   .     S
Ti26     Ti28    10.0   .     S
Ti26     Ti30    10.0   1_556     S
Ti26     Er279    10.0   .     S
Ti27     Ti28    10.0   .     S
Ti27     Ti31    10.0   1_556     S
Ti27     Er382    10.0   .     S
Ti28     Ti32    10.0   1_556     S
Ti28     Er381    10.0   .     S
Ti29     Ti30    10.0   .     S
Ti29     Ti31    10.0   .     S
Ti29     Ti25    10.0   1_554     S
Ti29     Er284    10.0   .     S
Ti30     Ti32    10.0   .     S
Ti30     Ti26    10.0   1_554     S
Ti30     Er283    10.0   .     S
Ti31     Ti32    10.0   .     S
Ti31     Ti27    10.0   1_554     S
Ti31     Er390    10.0   .     S
Ti32     Ti28    10.0   1_554     S
Ti32     Er389    10.0   .     S
Ti33     Ti34    10.0   .     S
Ti33     Ti35    10.0   .     S
Ti33     Ti39    10.0   1_655     S
Ti33     Er384    10.0   .     S
Ti34     Ti36    10.0   .     S
Ti34     Ti40    10.0   1_655     S
Ti34     Er383    10.0   .     S
Ti35     Ti36    10.0   .     S
Ti35     Ti37    10.0   1_655     S
Ti35     Er494    10.0   .     S
Ti36     Ti38    10.0   1_655     S
Ti36     Er493    10.0   .     S
Ti37     Ti38    10.0   .     S
Ti37     Ti39    10.0   .     S
Ti37     Ti35    10.0   1_455     S
Ti37     Er533    10.0   .     S
Ti38     Ti40    10.0   .     S
Ti38     Ti36    10.0   1_455     S
Ti38     Er534    10.0   .     S
Ti39     Ti40    10.0   .     S
Ti39     Ti33    10.0   1_455     S
Ti39     Er393    10.0   .     S
Ti40     Ti34    10.0   1_455     S
Ti40     Er394    10.0   .     S
Ti41     Ti42    10.0   .     S
Ti41     Ti43    10.0   .     S
Ti41     Ti45    10.0   1_565     S
Ti41     Er496    10.0   .     S
Ti42     Ti44    10.0   .     S
Ti42     Ti46    10.0   1_565     S
Ti42     Er495    10.0   .     S
Ti43     Ti44    10.0   .     S
Ti43     Ti47    10.0   1_565     S
Ti43     Er278    10.0   .     S
Ti44     Ti48    10.0   1_565     S
Ti44     Er277    10.0   .     S
Ti45     Ti46    10.0   .     S
Ti45     Ti47    10.0   .     S
Ti45     Ti41    10.0   1_545     S
Ti45     Er531    10.0   .     S
Ti46     Ti48    10.0   .     S
Ti46     Ti42    10.0   1_545     S
Ti46     Er532    10.0   .     S
Ti47     Ti48    10.0   .     S
Ti47     Ti43    10.0   1_545     S
Ti47     Er289    10.0   .     S
Ti48     Ti44    10.0   1_545     S
Ti48     Er290    10.0   .     S
Ti49     Ti51    10.0   .     S
Ti49     Ti50    10.0   .     S
Ti49     Ti53    10.0   .     S
Ti49     Er168    10.0   .     S
Ti50     Ti52    10.0   .     S
Ti50     Ti54    10.0   .     S
Ti50     Er167    10.0   .     S
Ti51     Ti52    10.0   .     S
Ti51     Ti55    10.0   .     S
Ti51     Er425    10.0   .     S
Ti52     Ti56    10.0   .     S
Ti52     Er426    10.0   .     S
Ti53     Ti55    10.0   .     S
Ti53     Ti54    10.0   .     S
Ti53     Er156    10.0   .     S
Ti54     Ti56    10.0   .     S
Ti54     Er155    10.0   .     S
Ti55     Ti56    10.0   .     S
Ti55     Er371    10.0   .     S
Ti56     Er372    10.0   .     S
Ti57     Ti60    10.0   .     S
Ti57     Ti58    10.0   .     S
Ti57     Ti63    10.0   .     S
Ti57     Er323    10.0   .     S
Ti58     Ti59    10.0   .     S
Ti58     Ti61    10.0   .     S
Ti58     Er170    10.0   .     S
Ti59     Ti60    10.0   .     S
Ti59     Ti62    10.0   .     S
Ti59     Er169    10.0   .     S
Ti60     Ti64    10.0   .     S
Ti60     Er324    10.0   .     S
Ti61     Ti63    10.0   .     S
Ti61     Ti62    10.0   .     S
Ti61     Er154    10.0   .     S
Ti62     Ti64    10.0   .     S
Ti62     Er153    10.0   .     S
Ti63     Ti64    10.0   .     S
Ti63     Er267    10.0   .     S
Ti64     Er268    10.0   .     S
Ti65     Ti67    10.0   .     S
Ti65     Ti68    10.0   .     S
Ti65     Ti69    10.0   .     S
Ti65     Er171    10.0   .     S
Ti66     Ti68    10.0   .     S
Ti66     Ti67    10.0   .     S
Ti66     Ti70    10.0   .     S
Ti66     Er299    10.0   .     S
Ti67     Ti71    10.0   .     S
Ti67     Er172    10.0   .     S
Ti68     Ti72    10.0   .     S
Ti68     Er300    10.0   .     S
Ti69     Ti71    10.0   .     S
Ti69     Ti72    10.0   .     S
Ti69     Er113    10.0   .     S
Ti70     Ti72    10.0   .     S
Ti70     Ti71    10.0   .     S
Ti70     Er265    10.0   .     S
Ti71     Er114    10.0   .     S
Ti72     Er266    10.0   .     S
Ti73     Ti76    10.0   .     S
Ti73     Ti75    10.0   .     S
Ti73     Ti78    10.0   .     S
Ti73     Er403    10.0   .     S
Ti74     Ti75    10.0   .     S
Ti74     Ti76    10.0   .     S
Ti74     Ti77    10.0   .     S
Ti74     Er177    10.0   .     S
Ti75     Ti79    10.0   .     S
Ti75     Er178    10.0   .     S
Ti76     Ti80    10.0   .     S
Ti76     Er404    10.0   .     S
Ti77     Ti79    10.0   .     S
Ti77     Ti80    10.0   .     S
Ti77     Er115    10.0   .     S
Ti78     Ti80    10.0   .     S
Ti78     Ti79    10.0   .     S
Ti78     Er369    10.0   .     S
Ti79     Er116    10.0   .     S
Ti80     Er370    10.0   .     S
Ti81     Ti83    10.0   .     S
Ti81     Ti82    10.0   .     S
Ti81     Ti86    10.0   1_565     S
Ti81     Er500    10.0   .     S
Ti82     Ti84    10.0   .     S
Ti82     Ti87    10.0   1_565     S
Ti82     Er499    10.0   .     S
Ti83     Ti84    10.0   .     S
Ti83     Ti85    10.0   1_565     S
Ti83     Er275    10.0   .     S
Ti84     Ti88    10.0   1_565     S
Ti84     Er276    10.0   .     S
Ti85     Ti88    10.0   .     S
Ti85     Ti86    10.0   .     S
Ti85     Ti83    10.0   1_545     S
Ti85     Er331    10.0   .     S
Ti86     Ti87    10.0   .     S
Ti86     Ti81    10.0   1_545     S
Ti86     Er504    10.0   .     S
Ti87     Ti88    10.0   .     S
Ti87     Ti82    10.0   1_545     S
Ti87     Er503    10.0   .     S
Ti88     Ti84    10.0   1_545     S
Ti88     Er332    10.0   .     S
Ti89     Ti92    10.0   .     S
Ti89     Ti90    10.0   .     S
Ti89     Ti95    10.0   1_565     S
Ti89     Er489    10.0   .     S
Ti90     Ti91    10.0   .     S
Ti90     Ti93    10.0   1_565     S
Ti90     Er286    10.0   .     S
Ti91     Ti92    10.0   .     S
Ti91     Ti94    10.0   1_565     S
Ti91     Er285    10.0   .     S
Ti92     Ti96    10.0   1_565     S
Ti92     Er490    10.0   .     S
Ti93     Ti95    10.0   .     S
Ti93     Ti94    10.0   .     S
Ti93     Ti90    10.0   1_545     S
Ti93     Er302    10.0   .     S
Ti94     Ti96    10.0   .     S
Ti94     Ti91    10.0   1_545     S
Ti94     Er301    10.0   .     S
Ti95     Ti96    10.0   .     S
Ti95     Ti89    10.0   1_545     S
Ti95     Er521    10.0   .     S
Ti96     Ti92    10.0   1_545     S
Ti96     Er522    10.0   .     S
Ti97     Ti100    10.0   .     S
Ti97     Ti98    10.0   .     S
Ti97     Ti101    10.0   1_655     S
Ti97     Er379    10.0   .     S
Ti98     Ti99    10.0   .     S
Ti98     Ti102    10.0   1_655     S
Ti98     Er502    10.0   .     S
Ti99     Ti100    10.0   .     S
Ti99     Ti103    10.0   1_655     S
Ti99     Er501    10.0   .     S
Ti100     Ti104    10.0   1_655     S
Ti100     Er380    10.0   .     S
Ti101     Ti104    10.0   .     S
Ti101     Ti102    10.0   .     S
Ti101     Ti97    10.0   1_455     S
Ti101     Er437    10.0   .     S
Ti102     Ti103    10.0   .     S
Ti102     Ti98    10.0   1_455     S
Ti102     Er506    10.0   .     S
Ti103     Ti104    10.0   .     S
Ti103     Ti99    10.0   1_455     S
Ti103     Er505    10.0   .     S
Ti104     Ti100    10.0   1_455     S
Ti104     Er438    10.0   .     S
Ti105     Ti107    10.0   .     S
Ti105     Ti106    10.0   .     S
Ti105     Ti109    10.0   1_655     S
Ti105     Er388    10.0   .     S
Ti106     Ti108    10.0   .     S
Ti106     Ti110    10.0   1_655     S
Ti106     Er387    10.0   .     S
Ti107     Ti108    10.0   .     S
Ti107     Ti111    10.0   1_655     S
Ti107     Er491    10.0   .     S
Ti108     Ti112    10.0   1_655     S
Ti108     Er492    10.0   .     S
Ti109     Ti111    10.0   .     S
Ti109     Ti110    10.0   .     S
Ti109     Ti105    10.0   1_455     S
Ti109     Er428    10.0   .     S
Ti110     Ti112    10.0   .     S
Ti110     Ti106    10.0   1_455     S
Ti110     Er427    10.0   .     S
Ti111     Ti112    10.0   .     S
Ti111     Ti107    10.0   1_455     S
Ti111     Er519    10.0   .     S
Ti112     Ti108    10.0   1_455     S
Ti112     Er520    10.0   .     S
Er113     Er114    10.0   .     S
Er113     V196    10.0   .     S
Er113     Er207    10.001   .     S
Er114     V125    10.0   .     S
Er114     Er116    10.001   .     S
Er115     Er116    10.0   .     S
Er115     V206    10.0   .     S
Er115     Er208    10.001   .     S
Er116     V126    10.0   .     S
Er117     Er118    10.0   .     S
Er117     V140    10.0   .     S
Er117     Er176    10.001   .     S
Er118     V124    10.0   .     S
Er118     Er178    10.001   .     S
Er119     Er120    10.0   .     S
Er119     V152    10.0   .     S
Er119     Er167    10.001   .     S
Er120     V136    10.0   .     S
Er120     Er169    10.001   .     S
Er121     Er122    10.0   .     S
Er121     V148    10.0   .     S
Er121     Er173    10.001   .     S
Er122     V130    10.0   .     S
Er122     Er172    10.001   .     S
V123     V124    10.0   .     S
V123     V126    10.0   .     S
V123     Er178    10.0   .     S
V123     V203    10.001   .     S
V124     V128    10.0   .     S
V124     V140    10.001   .     S
V125     V126    10.0   .     S
V125     V129    10.0   .     S
V125     V196    10.001   .     S
V126     V206    10.001   .     S
V127     V128    10.0   .     S
V127     V130    10.0   .     S
V127     Er142    10.0   .     S
V127     V150    10.001   .     S
V128     Er132    10.0   .     S
V128     V138    10.001   .     S
V129     V130    10.0   .     S
V129     Er172    10.0   .     S
V129     V193    10.001   .     S
V130     V148    10.001   .     S
Er131     Er132    10.0   .     S
Er131     V138    10.0   .     S
Er131     Er144    10.001   .     S
Er132     Er142    10.001   .     S
V133     V134    10.0   .     S
V133     V135    10.0   .     S
V133     Er153    10.0   .     S
V133     V186    10.001   .     S
V134     V139    10.0   .     S
V134     Er160    10.0   .     S
V134     V202    10.001   .     S
V135     V136    10.0   .     S
V135     Er169    10.0   .     S
V135     V183    10.001   .     S
V136     V137    10.0   .     S
V136     V152    10.001   .     S
V137     V138    10.0   .     S
V137     Er144    10.0   .     S
V137     V149    10.001   .     S
V138     V140    10.0   .     S
V139     V140    10.0   .     S
V139     Er176    10.0   .     S
V139     V204    10.001   .     S
Er141     Er142    10.0   .     S
Er141     V150    10.0   .     S
Er141     Er143    10.001   .     S
Er143     Er144    10.0   .     S
Er143     V149    10.0   .     S
V145     V146    10.0   .     S
V145     V151    10.0   .     S
V145     Er155    10.0   .     S
V145     V180    10.001   .     S
V146     V147    10.0   .     S
V146     Er157    10.0   .     S
V146     V192    10.001   .     S
V147     V148    10.0   .     S
V147     Er173    10.0   .     S
V147     V194    10.001   .     S
V148     V150    10.0   .     S
V149     V150    10.0   .     S
V149     V152    10.0   .     S
V151     V152    10.0   .     S
V151     Er167    10.0   .     S
V151     V184    10.001   .     S
Er153     Er154    10.0   .     S
Er153     Er160    10.001   .     S
Er154     V186    10.0   .     S
Er154     Er197    10.001   .     S
Er155     Er156    10.0   .     S
Er155     Er157    10.001   .     S
Er156     V180    10.0   .     S
Er156     Er187    10.001   .     S
Er157     Ti215    10.0   .     S
Er157     Er158    10.0   .     S
Er158     Ti214    10.0   .     S
Er158     V192    10.0   .     S
Er158     Er188    10.001   .     S
Er159     Ti221    10.0   .     S
Er159     Er160    10.0   .     S
Er159     V202    10.0   .     S
Er159     Er198    10.001   .     S
Er160     Ti223    10.0   .     S
Er161     Ti246    10.0   .     S
Er161     Er162    10.0   .     S
Er161     V182    10.0   .     S
Er161     Er165    10.001   .     S
Er162     Ti245    10.0   .     S
Er162     V189    10.0   .     S
Er162     Er163    10.001   .     S
Er163     Ti254    10.0   .     S
Er163     Er164    10.0   .     S
Er163     V190    10.0   .     S
Er164     Ti253    10.0   .     S
Er164     V200    10.0   .     S
Er164     Er166    10.001   .     S
Er165     Ti262    10.0   .     S
Er165     Er166    10.0   .     S
Er165     V181    10.0   .     S
Er166     Ti261    10.0   .     S
Er166     V199    10.0   .     S
Er167     Er168    10.0   .     S
Er168     V184    10.0   .     S
Er168     Er170    10.001   .     S
Er169     Er170    10.0   .     S
Er170     V183    10.0   .     S
Er171     Er172    10.0   .     S
Er171     V193    10.0   .     S
Er171     Er174    10.001   .     S
Er173     Ti210    10.0   .     S
Er173     Er174    10.0   .     S
Er174     Ti209    10.0   .     S
Er174     V194    10.0   .     S
Er175     Ti217    10.0   .     S
Er175     Er176    10.0   .     S
Er175     V204    10.0   .     S
Er175     Er177    10.001   .     S
Er176     Ti219    10.0   .     S
Er177     Er178    10.0   .     S
Er177     V203    10.0   .     S
V179     V180    10.0   .     S
V179     V182    10.0   .     S
V179     Er187    10.0   .     S
V179     V191    10.001   .     S
V180     V184    10.0   .     S
V181     V182    10.0   .     S
V181     V185    10.0   .     S
V181     V199    10.001   .     S
V182     V189    10.001   .     S
V183     V184    10.0   .     S
V183     V186    10.0   .     S
V185     V186    10.0   .     S
V185     Er197    10.0   .     S
V185     V201    10.001   .     S
Er187     Ti242    10.0   .     S
Er187     Er188    10.0   .     S
Er188     Ti241    10.0   .     S
Er188     V191    10.0   .     S
V189     V190    10.0   .     S
V189     V191    10.0   .     S
V190     V195    10.0   .     S
V190     V200    10.001   .     S
V191     V192    10.0   .     S
V192     V194    10.0   .     S
V193     V194    10.0   .     S
V193     V196    10.0   .     S
V195     V196    10.0   .     S
V195     Er207    10.0   .     S
V195     V205    10.001   .     S
Er197     Ti258    10.0   .     S
Er197     Er198    10.0   .     S
Er198     Ti257    10.0   .     S
Er198     V201    10.0   .     S
V199     V200    10.0   .     S
V199     V201    10.0   .     S
V200     V205    10.0   .     S
V201     V202    10.0   .     S
V202     V204    10.0   .     S
V203     V204    10.0   .     S
V203     V206    10.0   .     S
V205     V206    10.0   .     S
V205     Er208    10.0   .     S
Er207     Ti250    10.0   .     S
Er207     Er208    10.0   .     S
Er208     Ti249    10.0   .     S
Ti209     Ti211    10.0   .     S
Ti209     Ti210    10.0   .     S
Ti209     Ti214    10.0   .     S
Ti210     Ti212    10.0   .     S
Ti210     Ti215    10.0   .     S
Ti211     Ti212    10.0   .     S
Ti211     Ti213    10.0   .     S
Ti211     Er557    10.0   .     S
Ti212     Ti216    10.0   .     S
Ti212     Er558    10.0   .     S
Ti213     Ti216    10.0   .     S
Ti213     Ti214    10.0   .     S
Ti213     Er483    10.0   .     S
Ti214     Ti215    10.0   .     S
Ti215     Ti216    10.0   .     S
Ti216     Er484    10.0   .     S
Ti217     Ti219    10.0   .     S
Ti217     Ti220    10.0   .     S
Ti217     Ti221    10.0   .     S
Ti218     Ti220    10.0   .     S
Ti218     Ti219    10.0   .     S
Ti218     Ti222    10.0   .     S
Ti218     Er535    10.0   .     S
Ti219     Ti223    10.0   .     S
Ti220     Ti224    10.0   .     S
Ti220     Er536    10.0   .     S
Ti221     Ti223    10.0   .     S
Ti221     Ti224    10.0   .     S
Ti222     Ti224    10.0   .     S
Ti222     Ti223    10.0   .     S
Ti222     Er481    10.0   .     S
Ti224     Er482    10.0   .     S
Ti225     Ti227    10.0   .     S
Ti225     Ti226    10.0   .     S
Ti225     Ti229    10.0   1_556     S
Ti225     Er288    10.0   .     S
Ti226     Ti228    10.0   .     S
Ti226     Ti230    10.0   1_556     S
Ti226     Er287    10.0   .     S
Ti227     Ti228    10.0   .     S
Ti227     Ti231    10.0   1_556     S
Ti227     Er377    10.0   .     S
Ti228     Ti232    10.0   1_556     S
Ti228     Er378    10.0   .     S
Ti229     Ti231    10.0   .     S
Ti229     Ti230    10.0   .     S
Ti229     Ti225    10.0   1_554     S
Ti229     Er326    10.0   .     S
Ti230     Ti232    10.0   .     S
Ti230     Ti226    10.0   1_554     S
Ti230     Er325    10.0   .     S
Ti231     Ti232    10.0   .     S
Ti231     Ti227    10.0   1_554     S
Ti231     Er435    10.0   .     S
Ti232     Ti228    10.0   1_554     S
Ti232     Er436    10.0   .     S
Ti233     Ti236    10.0   .     S
Ti233     Ti234    10.0   .     S
Ti233     Ti237    10.0   1_556     S
Ti233     Er273    10.0   .     S
Ti234     Ti235    10.0   .     S
Ti234     Ti238    10.0   1_556     S
Ti234     Er392    10.0   .     S
Ti235     Ti236    10.0   .     S
Ti235     Ti239    10.0   1_556     S
Ti235     Er391    10.0   .     S
Ti236     Ti240    10.0   1_556     S
Ti236     Er274    10.0   .     S
Ti237     Ti240    10.0   .     S
Ti237     Ti238    10.0   .     S
Ti237     Ti233    10.0   1_554     S
Ti237     Er333    10.0   .     S
Ti238     Ti239    10.0   .     S
Ti238     Ti234    10.0   1_554     S
Ti238     Er430    10.0   .     S
Ti239     Ti240    10.0   .     S
Ti239     Ti235    10.0   1_554     S
Ti239     Er429    10.0   .     S
Ti240     Ti236    10.0   1_554     S
Ti240     Er334    10.0   .     S
Ti241     Ti243    10.0   .     S
Ti241     Ti242    10.0   .     S
Ti241     Ti245    10.0   .     S
Ti242     Ti244    10.0   .     S
Ti242     Ti246    10.0   .     S
Ti243     Ti244    10.0   .     S
Ti243     Ti247    10.0   .     S
Ti243     Er352    10.0   .     S
Ti244     Ti248    10.0   .     S
Ti244     Er351    10.0   .     S
Ti245     Ti247    10.0   .     S
Ti245     Ti246    10.0   .     S
Ti246     Ti248    10.0   .     S
Ti247     Ti248    10.0   .     S
Ti247     Er282    10.0   .     S
Ti248     Er281    10.0   .     S
Ti249     Ti251    10.0   .     S
Ti249     Ti250    10.0   .     S
Ti249     Ti253    10.0   .     S
Ti250     Ti252    10.0   .     S
Ti250     Ti254    10.0   .     S
Ti251     Ti252    10.0   .     S
Ti251     Ti255    10.0   .     S
Ti251     Er568    10.0   .     S
Ti252     Ti256    10.0   .     S
Ti252     Er567    10.0   .     S
Ti253     Ti255    10.0   .     S
Ti253     Ti254    10.0   .     S
Ti254     Ti256    10.0   .     S
Ti255     Ti256    10.0   .     S
Ti255     Er498    10.0   .     S
Ti256     Er497    10.0   .     S
Ti257     Ti259    10.0   .     S
Ti257     Ti258    10.0   .     S
Ti257     Ti261    10.0   .     S
Ti258     Ti260    10.0   .     S
Ti258     Ti262    10.0   .     S
Ti259     Ti260    10.0   .     S
Ti259     Ti263    10.0   .     S
Ti259     Er456    10.0   .     S
Ti260     Ti264    10.0   .     S
Ti260     Er455    10.0   .     S
Ti261     Ti263    10.0   .     S
Ti261     Ti262    10.0   .     S
Ti262     Ti264    10.0   .     S
Ti263     Ti264    10.0   .     S
Ti263     Er386    10.0   .     S
Ti264     Er385    10.0   .     S
Er265     Er266    10.0   .     S
Er265     V344    10.0   .     S
Er265     Er271    10.001   .     S
Er266     V308    10.0   .     S
Er266     Er331    10.001   .     S
Er267     Er268    10.0   .     S
Er267     V318    10.0   .     S
Er267     Er333    10.001   .     S
Er268     V360    10.0   .     S
Er268     Er269    10.001   .     S
Er269     Ti474    10.0   .     S
Er269     Er270    10.0   .     S
Er269     V359    10.0   .     S
Er270     Ti476    10.0   .     S
Er270     V335    10.0   .     S
Er270     Er334    10.001   .     S
Er271     Ti362    10.0   .     S
Er271     Er272    10.0   .     S
Er271     V343    10.0   .     S
Er272     Ti364    10.0   .     S
Er272     V341    10.0   .     S
Er272     Er332    10.001   .     S
Er273     Er274    10.0   .     S
Er273     V315    10.0   .     S
Er273     Er303    10.001   .     S
Er274     V340    10.0   .     S
Er274     Er276    10.001   .     S
Er275     Er276    10.0   .     S
Er275     V311    10.0   .     S
Er275     Er304    10.001   .     S
Er276     V339    10.0   .     S
Er277     Er278    10.0   .     S
Er277     V310    10.0   .     S
Er277     Er314    10.001   .     S
Er278     V295    10.0   .     S
Er278     Er280    10.001   .     S
Er279     Er280    10.0   .     S
Er279     V319    10.0   .     S
Er279     Er313    10.001   .     S
Er280     V296    10.0   .     S
Er281     Er282    10.0   .     S
Er281     V346    10.0   .     S
Er281     Er327    10.001   .     S
Er282     V358    10.0   .     S
Er282     Er329    10.001   .     S
Er283     Er284    10.0   .     S
Er283     V322    10.0   .     S
Er283     Er323    10.001   .     S
Er284     V294    10.0   .     S
Er284     Er285    10.001   .     S
Er285     Er286    10.0   .     S
Er285     V293    10.0   .     S
Er286     V356    10.0   .     S
Er286     Er324    10.001   .     S
Er287     Er288    10.0   .     S
Er287     V297    10.0   .     S
Er287     Er289    10.001   .     S
Er288     V347    10.0   .     S
Er288     Er299    10.001   .     S
Er289     Er290    10.0   .     S
Er289     V298    10.0   .     S
Er290     V306    10.0   .     S
Er290     Er300    10.001   .     S
V291     V292    10.0   .     S
V291     V293    10.0   1_545     S
V291     Er301    10.0   .     S
V291     V354    10.001   .     S
V292     V297    10.0   1_554     S
V292     Er325    10.0   .     S
V292     V350    10.001   .     S
V293     V291    10.0   1_565     S
V293     V294    10.0   .     S
V293     V356    10.001   .     S
V294     V296    10.0   1_554     S
V294     V322    10.001   .     S
V295     V296    10.0   .     S
V295     V298    10.0   1_565     S
V295     V310    10.001   .     S
V296     V294    10.0   1_556     S
V296     V319    10.001   .     S
V297     V292    10.0   1_556     S
V297     V298    10.0   .     S
V297     V347    10.001   .     S
V298     V295    10.0   1_545     S
V298     V306    10.001   .     S
Er299     Er300    10.0   .     S
Er299     V348    10.0   .     S
Er300     V305    10.0   .     S
Er301     Er302    10.0   .     S
Er301     Er325    10.001   .     S
Er302     V354    10.0   .     S
Er302     Er352    10.001   .     S
Er303     Er304    10.0   .     S
Er303     V316    10.0   .     S
Er304     V312    10.0   .     S
V305     V306    10.0   .     S
V305     V308    10.0   .     S
V305     V348    10.001   .     S
V306     V310    10.0   1_545     S
V307     V308    10.0   .     S
V307     V311    10.0   1_545     S
V307     Er331    10.0   .     S
V307     V342    10.001   .     S
V308     V344    10.001   .     S
V309     V310    10.0   .     S
V309     V312    10.0   .     S
V309     Er314    10.0   .     S
V309     V320    10.001   .     S
V310     V306    10.0   1_565     S
V311     V307    10.0   1_565     S
V311     V312    10.0   .     S
V311     V339    10.001   .     S
V312     V316    10.001   .     S
Er313     Er314    10.0   .     S
Er313     V320    10.0   .     S
V315     V316    10.0   .     S
V315     V317    10.0   1_556     S
V315     V340    10.001   .     S
V316     V320    10.0   .     S
V317     V318    10.0   .     S
V317     V315    10.0   1_554     S
V317     Er333    10.0   .     S
V317     V336    10.001   .     S
V318     V321    10.0   .     S
V318     V360    10.001   .     S
V319     V320    10.0   .     S
V319     V322    10.0   1_556     S
V321     V322    10.0   .     S
V321     Er323    10.0   .     S
V321     V355    10.001   .     S
V322     V319    10.0   1_554     S
Er323     Er324    10.0   .     S
Er324     V355    10.0   .     S
Er325     Er326    10.0   .     S
Er326     V350    10.0   .     S
Er326     Er351    10.001   .     S
Er327     Ti366    10.0   .     S
Er327     Er328    10.0   .     S
Er327     V345    10.0   .     S
Er328     Ti368    10.0   .     S
Er328     V337    10.0   .     S
Er328     Er330    10.001   .     S
Er329     Ti478    10.0   .     S
Er329     Er330    10.0   .     S
Er329     V357    10.0   .     S
Er330     Ti480    10.0   .     S
Er330     V338    10.0   .     S
Er331     Er332    10.0   .     S
Er332     V342    10.0   .     S
Er333     Er334    10.0   .     S
Er334     V336    10.0   .     S
V335     V336    10.0   .     S
V335     V338    10.0   1_565     S
V335     V359    10.001   .     S
V336     V340    10.0   1_554     S
V337     V338    10.0   .     S
V337     V341    10.0   1_554     S
V337     V345    10.001   .     S
V338     V335    10.0   1_545     S
V338     V357    10.001   .     S
V339     V340    10.0   .     S
V339     V342    10.0   1_565     S
V340     V336    10.0   1_556     S
V341     V337    10.0   1_556     S
V341     V342    10.0   .     S
V341     V343    10.001   .     S
V342     V339    10.0   1_545     S
V343     V344    10.0   .     S
V343     V345    10.0   1_556     S
V344     V348    10.0   .     S
V345     V346    10.0   .     S
V345     V343    10.0   1_554     S
V346     V349    10.0   .     S
V346     V358    10.001   .     S
V347     V348    10.0   .     S
V347     V350    10.0   1_556     S
V349     V350    10.0   .     S
V349     Er351    10.0   .     S
V349     V353    10.001   .     S
V350     V347    10.0   1_554     S
Er351     Er352    10.0   .     S
Er352     V353    10.0   .     S
V353     V354    10.0   .     S
V353     V358    10.0   .     S
V354     V356    10.0   1_545     S
V355     V356    10.0   .     S
V355     V360    10.0   .     S
V356     V354    10.0   1_565     S
V357     V358    10.0   .     S
V357     V359    10.0   1_545     S
V359     V357    10.0   1_565     S
V359     V360    10.0   .     S
Ti361     Ti363    10.0   .     S
Ti361     Ti362    10.0   .     S
Ti361     Ti365    10.0   1_556     S
Ti361     Er373    10.0   .     S
Ti362     Ti364    10.0   .     S
Ti362     Ti366    10.0   1_556     S
Ti363     Ti364    10.0   .     S
Ti363     Ti367    10.0   1_556     S
Ti363     Er374    10.0   .     S
Ti364     Ti368    10.0   1_556     S
Ti365     Ti367    10.0   .     S
Ti365     Ti366    10.0   .     S
Ti365     Ti361    10.0   1_554     S
Ti365     Er433    10.0   .     S
Ti366     Ti368    10.0   .     S
Ti366     Ti362    10.0   1_554     S
Ti367     Ti368    10.0   .     S
Ti367     Ti363    10.0   1_554     S
Ti367     Er434    10.0   .     S
Ti368     Ti364    10.0   1_554     S
Er369     Er370    10.0   .     S
Er369     V448    10.0   .     S
Er369     Er373    10.001   .     S
Er370     V408    10.0   .     S
Er370     Er437    10.001   .     S
Er371     Er372    10.0   .     S
Er371     V420    10.0   .     S
Er371     Er435    10.001   .     S
Er372     V458    10.0   .     S
Er372     Er375    10.001   .     S
Er373     Er374    10.0   .     S
Er373     V447    10.0   .     S
Er374     V439    10.0   .     S
Er374     Er438    10.001   .     S
Er375     Ti466    10.0   .     S
Er375     Er376    10.0   .     S
Er375     V457    10.0   .     S
Er376     Ti468    10.0   .     S
Er376     V445    10.0   .     S
Er376     Er436    10.001   .     S
Er377     Er378    10.0   .     S
Er377     V417    10.0   .     S
Er377     Er405    10.001   .     S
Er378     V443    10.0   .     S
Er378     Er380    10.001   .     S
Er379     Er380    10.0   .     S
Er379     V409    10.0   .     S
Er379     Er406    10.001   .     S
Er380     V444    10.0   .     S
Er381     Er382    10.0   .     S
Er381     V421    10.0   .     S
Er381     Er415    10.001   .     S
Er382     V400    10.0   .     S
Er382     Er384    10.001   .     S
Er383     Er384    10.0   .     S
Er383     V412    10.0   .     S
Er383     Er416    10.001   .     S
Er384     V399    10.0   .     S
Er385     Er386    10.0   .     S
Er385     V450    10.0   .     S
Er385     Er433    10.001   .     S
Er386     V462    10.0   .     S
Er386     Er431    10.001   .     S
Er387     Er388    10.0   .     S
Er387     V395    10.0   .     S
Er387     Er390    10.001   .     S
Er388     V459    10.0   .     S
Er388     Er426    10.001   .     S
Er389     Er390    10.0   .     S
Er389     V424    10.0   .     S
Er389     Er425    10.001   .     S
Er390     V396    10.0   .     S
Er391     Er392    10.0   .     S
Er391     V401    10.0   .     S
Er391     Er393    10.001   .     S
Er392     V451    10.0   .     S
Er392     Er403    10.001   .     S
Er393     Er394    10.0   .     S
Er393     V402    10.0   .     S
Er394     V414    10.0   .     S
Er394     Er404    10.001   .     S
V395     V396    10.0   .     S
V395     V398    10.0   1_655     S
V395     V459    10.001   .     S
V396     V400    10.0   1_554     S
V396     V424    10.001   .     S
V397     V398    10.0   .     S
V397     V401    10.0   1_554     S
V397     Er429    10.0   .     S
V397     V454    10.001   .     S
V398     V395    10.0   1_455     S
V398     Er427    10.0   .     S
V398     V464    10.001   .     S
V399     V400    10.0   .     S
V399     V402    10.0   1_655     S
V399     V412    10.001   .     S
V400     V396    10.0   1_556     S
V400     V421    10.001   .     S
V401     V397    10.0   1_556     S
V401     V402    10.0   .     S
V401     V451    10.001   .     S
V402     V399    10.0   1_455     S
V402     V414    10.001   .     S
Er403     Er404    10.0   .     S
Er403     V452    10.0   .     S
Er404     V413    10.0   .     S
Er405     Er406    10.0   .     S
Er405     V418    10.0   .     S
Er406     V410    10.0   .     S
V407     V408    10.0   .     S
V407     V409    10.0   1_455     S
V407     Er437    10.0   .     S
V407     V440    10.001   .     S
V408     V413    10.0   .     S
V408     V448    10.001   .     S
V409     V407    10.0   1_655     S
V409     V410    10.0   .     S
V409     V444    10.001   .     S
V410     V411    10.0   .     S
V410     V418    10.001   .     S
V411     V412    10.0   .     S
V411     Er416    10.0   .     S
V411     V422    10.001   .     S
V412     V414    10.0   1_655     S
V413     V414    10.0   .     S
V413     V452    10.001   .     S
V414     V412    10.0   1_455     S
Er415     Er416    10.0   .     S
Er415     V422    10.0   .     S
V417     V418    10.0   .     S
V417     V419    10.0   1_556     S
V417     V443    10.001   .     S
V418     V422    10.0   .     S
V419     V420    10.0   .     S
V419     V417    10.0   1_554     S
V419     Er435    10.0   .     S
V419     V446    10.001   .     S
V420     V423    10.0   .     S
V420     V458    10.001   .     S
V421     V422    10.0   .     S
V421     V424    10.0   1_556     S
V423     V424    10.0   .     S
V423     Er425    10.0   .     S
V423     V460    10.001   .     S
V424     V421    10.0   1_554     S
Er425     Er426    10.0   .     S
Er426     V460    10.0   .     S
Er427     Er428    10.0   .     S
Er427     Er429    10.001   .     S
Er428     V464    10.0   .     S
Er428     Er456    10.001   .     S
Er429     Er430    10.0   .     S
Er430     V454    10.0   .     S
Er430     Er455    10.001   .     S
Er431     Ti470    10.0   .     S
Er431     Er432    10.0   .     S
Er431     V461    10.0   .     S
Er432     Ti472    10.0   .     S
Er432     V441    10.0   .     S
Er432     Er434    10.001   .     S
Er433     Er434    10.0   .     S
Er433     V449    10.0   .     S
Er434     V442    10.0   .     S
Er435     Er436    10.0   .     S
Er436     V446    10.0   .     S
Er437     Er438    10.0   .     S
Er438     V440    10.0   .     S
V439     V440    10.0   .     S
V439     V442    10.0   1_556     S
V439     V447    10.001   .     S
V440     V444    10.0   1_455     S
V441     V442    10.0   .     S
V441     V445    10.0   1_455     S
V441     V461    10.001   .     S
V442     V439    10.0   1_554     S
V442     V449    10.001   .     S
V443     V444    10.0   .     S
V443     V446    10.0   1_556     S
V444     V440    10.0   1_655     S
V445     V441    10.0   1_655     S
V445     V446    10.0   .     S
V445     V457    10.001   .     S
V446     V443    10.0   1_554     S
V447     V448    10.0   .     S
V447     V449    10.0   1_556     S
V448     V452    10.0   .     S
V449     V450    10.0   .     S
V449     V447    10.0   1_554     S
V450     V453    10.0   .     S
V450     V462    10.001   .     S
V451     V452    10.0   .     S
V451     V454    10.0   1_556     S
V453     V454    10.0   .     S
V453     Er455    10.0   .     S
V453     V463    10.001   .     S
V454     V451    10.0   1_554     S
Er455     Er456    10.0   .     S
Er456     V463    10.0   .     S
V457     V458    10.0   .     S
V457     V461    10.0   1_655     S
V458     V460    10.0   .     S
V459     V460    10.0   .     S
V459     V464    10.0   1_655     S
V461     V462    10.0   .     S
V461     V457    10.0   1_455     S
V462     V463    10.0   .     S
V463     V464    10.0   .     S
V464     V459    10.0   1_455     S
Ti465     Ti467    10.0   .     S
Ti465     Ti466    10.0   .     S
Ti465     Ti469    10.0   1_655     S
Ti465     Er485    10.0   .     S
Ti466     Ti468    10.0   .     S
Ti466     Ti470    10.0   1_655     S
Ti467     Ti468    10.0   .     S
Ti467     Ti471    10.0   1_655     S
Ti467     Er486    10.0   .     S
Ti468     Ti472    10.0   1_655     S
Ti469     Ti471    10.0   .     S
Ti469     Ti470    10.0   .     S
Ti469     Ti465    10.0   1_455     S
Ti469     Er517    10.0   .     S
Ti470     Ti472    10.0   .     S
Ti470     Ti466    10.0   1_455     S
Ti471     Ti472    10.0   .     S
Ti471     Ti467    10.0   1_455     S
Ti471     Er518    10.0   .     S
Ti472     Ti468    10.0   1_455     S
Ti473     Ti475    10.0   .     S
Ti473     Ti474    10.0   .     S
Ti473     Ti477    10.0   1_565     S
Ti473     Er487    10.0   .     S
Ti474     Ti476    10.0   .     S
Ti474     Ti478    10.0   1_565     S
Ti475     Ti476    10.0   .     S
Ti475     Ti479    10.0   1_565     S
Ti475     Er488    10.0   .     S
Ti476     Ti480    10.0   1_565     S
Ti477     Ti479    10.0   .     S
Ti477     Ti478    10.0   .     S
Ti477     Ti473    10.0   1_545     S
Ti477     Er515    10.0   .     S
Ti478     Ti480    10.0   .     S
Ti478     Ti474    10.0   1_545     S
Ti479     Ti480    10.0   .     S
Ti479     Ti475    10.0   1_545     S
Ti479     Er516    10.0   .     S
Ti480     Ti476    10.0   1_545     S
Er481     Er482    10.0   .     S
Er481     V562    10.0   .     S
Er481     Er487    10.001   .     S
Er482     V542    10.0   .     S
Er482     Er519    10.001   .     S
Er483     Er484    10.0   .     S
Er483     V552    10.0   .     S
Er483     Er521    10.001   .     S
Er484     V576    10.0   .     S
Er484     Er485    10.001   .     S
Er485     Er486    10.0   .     S
Er485     V575    10.0   .     S
Er486     V523    10.0   .     S
Er486     Er522    10.001   .     S
Er487     Er488    10.0   .     S
Er487     V561    10.0   .     S
Er488     V529    10.0   .     S
Er488     Er520    10.001   .     S
Er489     Er490    10.0   .     S
Er489     V549    10.0   .     S
Er489     Er537    10.001   .     S
Er490     V526    10.0   .     S
Er490     Er492    10.001   .     S
Er491     Er492    10.0   .     S
Er491     V539    10.0   .     S
Er491     Er538    10.001   .     S
Er492     V525    10.0   .     S
Er493     Er494    10.0   .     S
Er493     V544    10.0   .     S
Er493     Er548    10.001   .     S
Er494     V511    10.0   .     S
Er494     Er496    10.001   .     S
Er495     Er496    10.0   .     S
Er495     V553    10.0   .     S
Er495     Er547    10.001   .     S
Er496     V512    10.0   .     S
Er497     Er498    10.0   .     S
Er497     V560    10.0   .     S
Er497     Er515    10.001   .     S
Er498     V574    10.0   .     S
Er498     Er517    10.001   .     S
Er499     Er500    10.0   .     S
Er499     V513    10.0   .     S
Er499     Er533    10.001   .     S
Er500     V563    10.0   .     S
Er500     Er535    10.001   .     S
Er501     Er502    10.0   .     S
Er501     V507    10.0   .     S
Er501     Er531    10.001   .     S
Er502     V572    10.0   .     S
Er502     Er558    10.001   .     S
Er503     Er504    10.0   .     S
Er503     V509    10.0   .     S
Er503     Er505    10.001   .     S
Er504     V566    10.0   .     S
Er504     Er567    10.001   .     S
Er505     Er506    10.0   .     S
Er505     V510    10.0   .     S
Er506     V570    10.0   .     S
Er506     Er568    10.001   .     S
V507     V508    10.0   .     S
V507     V510    10.0   1_655     S
V507     V572    10.001   .     S
V508     V512    10.0   1_545     S
V508     Er531    10.0   .     S
V508     V556    10.001   .     S
V509     V510    10.0   .     S
V509     V513    10.0   1_545     S
V509     V566    10.001   .     S
V510     V507    10.0   1_455     S
V510     V570    10.001   .     S
V511     V512    10.0   .     S
V511     V514    10.0   1_655     S
V511     V544    10.001   .     S
V512     V508    10.0   1_565     S
V512     V553    10.001   .     S
V513     V509    10.0   1_565     S
V513     V514    10.0   .     S
V513     V563    10.001   .     S
V514     V511    10.0   1_455     S
V514     Er533    10.0   .     S
V514     V546    10.001   .     S
Er515     Er516    10.0   .     S
Er515     V559    10.0   .     S
Er516     V528    10.0   .     S
Er516     Er518    10.001   .     S
Er517     Er518    10.0   .     S
Er517     V573    10.0   .     S
Er518     V527    10.0   .     S
Er519     Er520    10.0   .     S
Er519     V541    10.0   .     S
Er520     V530    10.0   .     S
Er521     Er522    10.0   .     S
Er521     V551    10.0   .     S
Er522     V524    10.0   .     S
V523     V524    10.0   .     S
V523     V527    10.0   1_655     S
V523     V575    10.001   .     S
V524     V526    10.0   1_545     S
V524     V551    10.001   .     S
V525     V526    10.0   .     S
V525     V530    10.0   1_655     S
V525     V539    10.001   .     S
V526     V524    10.0   1_565     S
V526     V549    10.001   .     S
V527     V528    10.0   .     S
V527     V523    10.0   1_455     S
V527     V573    10.001   .     S
V528     V529    10.0   1_545     S
V528     V559    10.001   .     S
V529     V528    10.0   1_565     S
V529     V530    10.0   .     S
V529     V561    10.001   .     S
V530     V525    10.0   1_455     S
V530     V541    10.001   .     S
Er531     Er532    10.0   .     S
Er532     V556    10.0   .     S
Er532     Er557    10.001   .     S
Er533     Er534    10.0   .     S
Er534     V546    10.0   .     S
Er534     Er536    10.001   .     S
Er535     Er536    10.0   .     S
Er535     V564    10.0   .     S
Er536     V545    10.0   .     S
Er537     Er538    10.0   .     S
Er537     V550    10.0   .     S
Er538     V540    10.0   .     S
V539     V540    10.0   .     S
V539     V541    10.0   1_655     S
V540     V543    10.0   .     S
V540     V550    10.001   .     S
V541     V542    10.0   .     S
V541     V539    10.0   1_455     S
V542     V545    10.0   .     S
V542     V562    10.001   .     S
V543     V544    10.0   .     S
V543     Er548    10.0   .     S
V543     V554    10.001   .     S
V544     V546    10.0   1_655     S
V545     V546    10.0   .     S
V545     V564    10.001   .     S
V546     V544    10.0   1_455     S
Er547     Er548    10.0   .     S
Er547     V554    10.0   .     S
V549     V550    10.0   .     S
V549     V551    10.0   1_565     S
V550     V554    10.0   .     S
V551     V552    10.0   .     S
V551     V549    10.0   1_545     S
V552     V555    10.0   .     S
V552     V576    10.001   .     S
V553     V554    10.0   .     S
V553     V556    10.0   1_565     S
V555     V556    10.0   .     S
V555     Er557    10.0   .     S
V555     V571    10.001   .     S
V556     V553    10.0   1_545     S
Er557     Er558    10.0   .     S
Er558     V571    10.0   .     S
V559     V560    10.0   .     S
V559     V561    10.0   1_545     S
V560     V565    10.0   .     S
V560     V574    10.001   .     S
V561     V559    10.0   1_565     S
V561     V562    10.0   .     S
V562     V564    10.0   .     S
V563     V564    10.0   .     S
V563     V566    10.0   1_565     S
V565     V566    10.0   .     S
V565     Er567    10.0   .     S
V565     V569    10.001   .     S
V566     V563    10.0   1_545     S
Er567     Er568    10.0   .     S
Er568     V569    10.0   .     S
V569     V570    10.0   .     S
V569     V574    10.0   .     S
V570     V572    10.0   1_455     S
V571     V572    10.0   .     S
V571     V576    10.0   .     S
V572     V570    10.0   1_655     S
V573     V574    10.0   .     S
V573     V575    10.0   1_455     S
V575     V573    10.0   1_655     S
V575     V576    10.0   .     S
