data_ucx
_audit_creation_date              2020-02-02
_audit_creation_method            'Pymatgen'
_symmetry_space_group_name_H-M    'P1'
_symmetry_Int_Tables_number       1
loop_
_symmetry_equiv_pos_as_xyz
  x,y,z
_cell_length_a                    117.044
_cell_length_b                    117.044
_cell_length_c                    117.044
_cell_angle_alpha                 90.0
_cell_angle_beta                 90.0
_cell_angle_gamma                 90.0
loop_
_atom_site_label
_atom_site_type_symbol
_atom_site_fract_x
_atom_site_fract_y
_atom_site_fract_z
O1     O     0.5427   0.5427   0.9573
O2     O     0.5427   0.5427   0.0427
O3     O     0.5427   0.4573   0.9573
O4     O     0.5427   0.4573   0.0427
O5     O     0.4573   0.5427   0.9573
O6     O     0.4573   0.5427   0.0427
O7     O     0.4573   0.4573   0.9573
O8     O     0.4573   0.4573   0.0427
O9     O     0.5427   0.9573   0.5427
O10     O     0.5427   0.0427   0.5427
O11     O     0.4573   0.9573   0.5427
O12     O     0.4573   0.0427   0.5427
O13     O     0.5427   0.9573   0.4573
O14     O     0.5427   0.0427   0.4573
O15     O     0.4573   0.9573   0.4573
O16     O     0.4573   0.0427   0.4573
O17     O     0.9573   0.5427   0.5427
O18     O     0.0427   0.5427   0.5427
O19     O     0.9573   0.5427   0.4573
O20     O     0.0427   0.5427   0.4573
O21     O     0.9573   0.4573   0.5427
O22     O     0.0427   0.4573   0.5427
O23     O     0.9573   0.4573   0.4573
O24     O     0.0427   0.4573   0.4573
N25     N     0.3809   0.5812   0.9573
N26     N     0.3809   0.5812   0.0427
C27     C     0.3047   0.5427   0.0427
C28     C     0.3047   0.5427   0.9573
Be29     Be     0.3365   0.6543   0.9573
B30     B     0.2603   0.6158   0.9573
Be31     Be     0.3365   0.6543   0.0427
B32     B     0.2603   0.6158   0.0427
N33     N     0.3809   0.4188   0.9573
N34     N     0.3809   0.4188   0.0427
C35     C     0.3047   0.4573   0.0427
C36     C     0.3047   0.4573   0.9573
Be37     Be     0.3365   0.3457   0.9573
B38     B     0.2603   0.3842   0.9573
Be39     Be     0.3365   0.3457   0.0427
B40     B     0.2603   0.3842   0.0427
N41     N     0.5812   0.9573   0.3809
N42     N     0.5812   0.0427   0.3809
C43     C     0.5427   0.0427   0.3047
C44     C     0.5427   0.9573   0.3047
Be45     Be     0.6543   0.9573   0.3365
B46     B     0.6158   0.9573   0.2603
Be47     Be     0.6543   0.0427   0.3365
B48     B     0.6158   0.0427   0.2603
N49     N     0.4188   0.9573   0.3809
N50     N     0.4188   0.0427   0.3809
C51     C     0.4573   0.0427   0.3047
C52     C     0.4573   0.9573   0.3047
Be53     Be     0.3457   0.9573   0.3365
B54     B     0.3842   0.9573   0.2603
Be55     Be     0.3457   0.0427   0.3365
B56     B     0.3842   0.0427   0.2603
N57     N     0.9573   0.3809   0.5812
N58     N     0.0427   0.3809   0.5812
C59     C     0.0427   0.3047   0.5427
C60     C     0.9573   0.3047   0.5427
Be61     Be     0.9573   0.3365   0.6543
B62     B     0.9573   0.2603   0.6158
Be63     Be     0.0427   0.3365   0.6543
B64     B     0.0427   0.2603   0.6158
N65     N     0.9573   0.3809   0.4188
N66     N     0.0427   0.3809   0.4188
C67     C     0.0427   0.3047   0.4573
C68     C     0.9573   0.3047   0.4573
Be69     Be     0.9573   0.3365   0.3457
B70     B     0.9573   0.2603   0.3842
Be71     Be     0.0427   0.3365   0.3457
B72     B     0.0427   0.2603   0.3842
N73     N     0.6191   0.5812   0.9573
N74     N     0.6191   0.5812   0.0427
C75     C     0.6953   0.5427   0.9573
C76     C     0.6953   0.5427   0.0427
Be77     Be     0.6635   0.6543   0.9573
B78     B     0.7397   0.6158   0.9573
Be79     Be     0.6635   0.6543   0.0427
B80     B     0.7397   0.6158   0.0427
N81     N     0.6191   0.4188   0.9573
N82     N     0.6191   0.4188   0.0427
C83     C     0.6953   0.4573   0.9573
C84     C     0.6953   0.4573   0.0427
Be85     Be     0.6635   0.3457   0.9573
B86     B     0.7397   0.3842   0.9573
Be87     Be     0.6635   0.3457   0.0427
B88     B     0.7397   0.3842   0.0427
N89     N     0.5812   0.9573   0.6191
N90     N     0.5812   0.0427   0.6191
C91     C     0.5427   0.9573   0.6953
C92     C     0.5427   0.0427   0.6953
Be93     Be     0.6543   0.9573   0.6635
B94     B     0.6158   0.9573   0.7397
Be95     Be     0.6543   0.0427   0.6635
B96     B     0.6158   0.0427   0.7397
N97     N     0.4188   0.9573   0.6191
N98     N     0.4188   0.0427   0.6191
C99     C     0.4573   0.9573   0.6953
C100     C     0.4573   0.0427   0.6953
Be101     Be     0.3457   0.9573   0.6635
B102     B     0.3842   0.9573   0.7397
Be103     Be     0.3457   0.0427   0.6635
B104     B     0.3842   0.0427   0.7397
N105     N     0.9573   0.6191   0.5812
N106     N     0.0427   0.6191   0.5812
C107     C     0.9573   0.6953   0.5427
C108     C     0.0427   0.6953   0.5427
Be109     Be     0.9573   0.6635   0.6543
B110     B     0.9573   0.7397   0.6158
Be111     Be     0.0427   0.6635   0.6543
B112     B     0.0427   0.7397   0.6158
N113     N     0.9573   0.6191   0.4188
N114     N     0.0427   0.6191   0.4188
C115     C     0.9573   0.6953   0.4573
C116     C     0.0427   0.6953   0.4573
Be117     Be     0.9573   0.6635   0.3457
B118     B     0.9573   0.7397   0.3842
Be119     Be     0.0427   0.6635   0.3457
B120     B     0.0427   0.7397   0.3842
V121     V     0.2222   0.9573   0.2619
Er122     Er     0.2706   0.9573   0.1916
He123     He     0.3259   0.9035   0.2284
S124     S     0.2825   0.9116   0.3014
V125     V     0.2222   0.0427   0.2619
Er126     Er     0.2706   0.0427   0.1916
He127     He     0.3259   0.0965   0.2284
S128     S     0.2825   0.0884   0.3014
V129     V     0.9573   0.2619   0.2222
Er130     Er     0.9573   0.1916   0.2706
He131     He     0.9035   0.2284   0.3259
S132     S     0.9116   0.3014   0.2825
V133     V     0.0427   0.2619   0.2222
Er134     Er     0.0427   0.1916   0.2706
He135     He     0.0965   0.2284   0.3259
S136     S     0.0884   0.3014   0.2825
Li137     Li     0.7165   0.1669   0.2049
Ti138     Ti     0.7651   0.1134   0.1596
Ce139     Ce     0.8201   0.107   0.2247
H140     H     0.7663   0.1526   0.2728
Ce141     Ce     0.893   0.2247   0.1799
H142     H     0.8474   0.2728   0.2337
Li143     Li     0.8331   0.2049   0.2835
Ti144     Ti     0.8866   0.1596   0.2349
Li145     Li     0.7951   0.2835   0.1669
Ti146     Ti     0.8404   0.2349   0.1134
Ce147     Ce     0.7753   0.1799   0.107
H148     H     0.7272   0.2337   0.1526
V149     V     0.7381   0.2222   0.9573
Er150     Er     0.8084   0.2706   0.9573
He151     He     0.7716   0.3259   0.9035
S152     S     0.6986   0.2825   0.9116
V153     V     0.7381   0.2222   0.0427
Er154     Er     0.8084   0.2706   0.0427
He155     He     0.7716   0.3259   0.0965
S156     S     0.6986   0.2825   0.0884
V157     V     0.2222   0.9573   0.7381
Er158     Er     0.2706   0.9573   0.8084
He159     He     0.3259   0.9035   0.7716
S160     S     0.2825   0.9116   0.6986
V161     V     0.2222   0.0427   0.7381
Er162     Er     0.2706   0.0427   0.8084
He163     He     0.3259   0.0965   0.7716
S164     S     0.2825   0.0884   0.6986
V165     V     0.7778   0.9573   0.2619
Er166     Er     0.7294   0.9573   0.1916
He167     He     0.6741   0.9035   0.2284
S168     S     0.7175   0.9116   0.3014
V169     V     0.7778   0.0427   0.2619
Er170     Er     0.7294   0.0427   0.1916
He171     He     0.6741   0.0965   0.2284
S172     S     0.7175   0.0884   0.3014
V173     V     0.9573   0.7381   0.2222
Er174     Er     0.9573   0.8084   0.2706
He175     He     0.9035   0.7716   0.3259
S176     S     0.9116   0.6986   0.2825
V177     V     0.0427   0.7381   0.2222
Er178     Er     0.0427   0.8084   0.2706
He179     He     0.0965   0.7716   0.3259
S180     S     0.0884   0.6986   0.2825
Li181     Li     0.2049   0.7165   0.1669
Ti182     Ti     0.1596   0.7651   0.1134
Ce183     Ce     0.2247   0.8201   0.107
H184     H     0.2728   0.7663   0.1526
Ce185     Ce     0.1799   0.893   0.2247
H186     H     0.2337   0.8474   0.2728
Li187     Li     0.2835   0.8331   0.2049
Ti188     Ti     0.2349   0.8866   0.1596
Li189     Li     0.1669   0.7951   0.2835
Ti190     Ti     0.1134   0.8404   0.2349
Ce191     Ce     0.107   0.7753   0.1799
H192     H     0.1526   0.7272   0.2337
V193     V     0.2619   0.7778   0.9573
Er194     Er     0.1916   0.7294   0.9573
He195     He     0.2284   0.6741   0.9035
S196     S     0.3014   0.7175   0.9116
V197     V     0.2619   0.7778   0.0427
Er198     Er     0.1916   0.7294   0.0427
He199     He     0.2284   0.6741   0.0965
S200     S     0.3014   0.7175   0.0884
Li201     Li     0.8331   0.7951   0.2835
Ti202     Ti     0.8866   0.8404   0.2349
Ce203     Ce     0.893   0.7753   0.1799
H204     H     0.8474   0.7272   0.2337
Li205     Li     0.7165   0.8331   0.2049
Ti206     Ti     0.7651   0.8866   0.1596
Ce207     Ce     0.8201   0.893   0.2247
H208     H     0.7663   0.8474   0.2728
Li209     Li     0.7951   0.7165   0.1669
Ti210     Ti     0.8404   0.7651   0.1134
Ce211     Ce     0.7753   0.8201   0.107
H212     H     0.7272   0.7663   0.1526
Li213     Li     0.2835   0.8331   0.7951
Ti214     Ti     0.2349   0.8866   0.8404
Ce215     Ce     0.1799   0.893   0.7753
H216     H     0.2337   0.8474   0.7272
Li217     Li     0.2049   0.7165   0.8331
Ti218     Ti     0.1596   0.7651   0.8866
Ce219     Ce     0.2247   0.8201   0.893
H220     H     0.2728   0.7663   0.8474
Li221     Li     0.1669   0.7951   0.7165
Ti222     Ti     0.1134   0.8404   0.7651
Ce223     Ce     0.107   0.7753   0.8201
H224     H     0.1526   0.7272   0.7663
V225     V     0.7381   0.7778   0.9573
Er226     Er     0.8084   0.7294   0.9573
He227     He     0.7716   0.6741   0.9035
S228     S     0.6986   0.7175   0.9116
V229     V     0.7381   0.7778   0.0427
Er230     Er     0.8084   0.7294   0.0427
He231     He     0.7716   0.6741   0.0965
S232     S     0.6986   0.7175   0.0884
V233     V     0.9573   0.7381   0.7778
Er234     Er     0.9573   0.8084   0.7294
He235     He     0.9035   0.7716   0.6741
S236     S     0.9116   0.6986   0.7175
V237     V     0.0427   0.7381   0.7778
Er238     Er     0.0427   0.8084   0.7294
He239     He     0.0965   0.7716   0.6741
S240     S     0.0884   0.6986   0.7175
Li241     Li     0.7951   0.7165   0.8331
Ti242     Ti     0.8404   0.7651   0.8866
Ce243     Ce     0.7753   0.8201   0.893
H244     H     0.7272   0.7663   0.8474
Li245     Li     0.8331   0.7951   0.7165
Ti246     Ti     0.8866   0.8404   0.7651
Ce247     Ce     0.893   0.7753   0.8201
H248     H     0.8474   0.7272   0.7663
Li249     Li     0.7165   0.8331   0.7951
Ti250     Ti     0.7651   0.8866   0.8404
Ce251     Ce     0.8201   0.893   0.7753
H252     H     0.7663   0.8474   0.7272
V253     V     0.7778   0.9573   0.7381
Er254     Er     0.7294   0.9573   0.8084
He255     He     0.6741   0.9035   0.7716
S256     S     0.7175   0.9116   0.6986
V257     V     0.7778   0.0427   0.7381
Er258     Er     0.7294   0.0427   0.8084
He259     He     0.6741   0.0965   0.7716
S260     S     0.7175   0.0884   0.6986
Li261     Li     0.7951   0.2835   0.8331
Ti262     Ti     0.8404   0.2349   0.8866
Ce263     Ce     0.7753   0.1799   0.893
H264     H     0.7272   0.2337   0.8474
Li265     Li     0.7165   0.1669   0.7951
Ti266     Ti     0.7651   0.1134   0.8404
Ce267     Ce     0.8201   0.107   0.7753
H268     H     0.7663   0.1526   0.7272
Li269     Li     0.8331   0.2049   0.7165
Ti270     Ti     0.8866   0.1596   0.7651
Ce271     Ce     0.893   0.2247   0.8201
H272     H     0.8474   0.2728   0.7663
V273     V     0.9573   0.2619   0.7778
Er274     Er     0.9573   0.1916   0.7294
He275     He     0.9035   0.2284   0.6741
S276     S     0.9116   0.3014   0.7175
V277     V     0.0427   0.2619   0.7778
Er278     Er     0.0427   0.1916   0.7294
He279     He     0.0965   0.2284   0.6741
S280     S     0.0884   0.3014   0.7175
Li281     Li     0.1669   0.2049   0.7165
Ti282     Ti     0.1134   0.1596   0.7651
Ce283     Ce     0.107   0.2247   0.8201
H284     H     0.1526   0.2728   0.7663
Ce285     Ce     0.2247   0.1799   0.893
H286     H     0.2728   0.2337   0.8474
Li287     Li     0.2049   0.2835   0.8331
Ti288     Ti     0.1596   0.2349   0.8866
Li289     Li     0.2835   0.1669   0.7951
Ti290     Ti     0.2349   0.1134   0.8404
Ce291     Ce     0.1799   0.107   0.7753
H292     H     0.2337   0.1526   0.7272
V293     V     0.2619   0.2222   0.9573
Er294     Er     0.1916   0.2706   0.9573
He295     He     0.2284   0.3259   0.9035
S296     S     0.3014   0.2825   0.9116
V297     V     0.2619   0.2222   0.0427
Er298     Er     0.1916   0.2706   0.0427
He299     He     0.2284   0.3259   0.0965
S300     S     0.3014   0.2825   0.0884
Ce301     Ce     0.1799   0.107   0.2247
H302     H     0.2337   0.1526   0.2728
Li303     Li     0.2835   0.1669   0.2049
Ti304     Ti     0.2349   0.1134   0.1596
Ce305     Ce     0.107   0.2247   0.1799
H306     H     0.1526   0.2728   0.2337
Li307     Li     0.1669   0.2049   0.2835
Ti308     Ti     0.1134   0.1596   0.2349
Ce309     Ce     0.2247   0.1799   0.107
H310     H     0.2728   0.2337   0.1526
Li311     Li     0.2049   0.2835   0.1669
Ti312     Ti     0.1596   0.2349   0.1134
loop_
_geom_bond_atom_site_label_1
_geom_bond_atom_site_label_2
_geom_bond_distance
_geom_bond_site_symmetry_2
_ccdc_geom_bond_type
O1     O2    9.993   1_556     S
O1     O3    9.998   .     S
O1     O5    10.005   .     S
O1     N73    10.008   .     S
O2     O1    9.993   1_554     S
O2     O4    9.998   .     S
O2     O6    10.005   .     S
O2     N74    10.008   .     S
O3     O4    9.993   1_556     S
O3     O7    10.005   .     S
O3     N81    10.008   .     S
O4     O3    9.993   1_554     S
O4     O8    10.005   .     S
O4     N82    10.008   .     S
O5     O6    9.993   1_556     S
O5     O7    9.998   .     S
O5     N25    10.008   .     S
O6     O5    9.993   1_554     S
O6     O8    9.998   .     S
O6     N26    10.008   .     S
O7     O8    9.993   1_556     S
O7     N33    10.008   .     S
O8     O7    9.993   1_554     S
O8     N34    10.008   .     S
O9     O10    9.993   1_565     S
O9     O11    9.998   .     S
O9     O13    10.005   .     S
O9     N89    10.008   .     S
O10     O9    9.993   1_545     S
O10     O12    9.998   .     S
O10     O14    10.005   .     S
O10     N90    10.008   .     S
O11     O12    9.993   1_565     S
O11     O15    10.005   .     S
O11     N97    10.008   .     S
O12     O11    9.993   1_545     S
O12     O16    10.005   .     S
O12     N98    10.008   .     S
O13     O14    9.993   1_565     S
O13     O15    9.998   .     S
O13     N41    10.008   .     S
O14     O13    9.993   1_545     S
O14     O16    9.998   .     S
O14     N42    10.008   .     S
O15     O16    9.993   1_565     S
O15     N49    10.008   .     S
O16     O15    9.993   1_545     S
O16     N50    10.008   .     S
O17     O18    9.993   1_655     S
O17     O19    9.998   .     S
O17     O21    10.005   .     S
O17     N105    10.008   .     S
O18     O17    9.993   1_455     S
O18     O20    9.998   .     S
O18     O22    10.005   .     S
O18     N106    10.008   .     S
O19     O20    9.993   1_655     S
O19     O23    10.005   .     S
O19     N113    10.008   .     S
O20     O19    9.993   1_455     S
O20     O24    10.005   .     S
O20     N114    10.008   .     S
O21     O22    9.993   1_655     S
O21     O23    9.998   .     S
O21     N57    10.008   .     S
O22     O21    9.993   1_455     S
O22     O24    9.998   .     S
O22     N58    10.008   .     S
O23     O24    9.993   1_655     S
O23     N65    10.008   .     S
O24     O23    9.993   1_455     S
O24     N66    10.008   .     S
N25     N26    9.993   1_556     S
N25     C28    9.998   .     S
N25     Be29    10.007   .     S
N26     N25    9.993   1_554     S
N26     C27    9.998   .     S
N26     Be31    10.007   .     S
C27     C28    9.991   1_554     S
C27     B32    10.003   .     S
C27     C35    10.005   .     S
C28     C27    9.991   1_556     S
C28     B30    10.003   .     S
C28     C36    10.005   .     S
Be29     B30    9.992   .     S
Be29     Be31    10.003   1_556     S
Be29     S196    10.009   .     S
B30     B32    10.003   1_556     S
B30     He195    10.006   .     S
Be31     B32    9.992   .     S
Be31     Be29    10.003   1_554     S
Be31     S200    10.009   .     S
B32     B30    10.003   1_554     S
B32     He199    10.006   .     S
N33     N34    9.993   1_556     S
N33     C36    9.998   .     S
N33     Be37    10.007   .     S
N34     N33    9.993   1_554     S
N34     C35    9.998   .     S
N34     Be39    10.007   .     S
C35     C36    9.991   1_554     S
C35     B40    10.003   .     S
C36     C35    9.991   1_556     S
C36     B38    10.003   .     S
Be37     B38    9.992   .     S
Be37     Be39    10.003   1_556     S
Be37     S296    10.009   .     S
B38     B40    10.003   1_556     S
B38     He295    10.006   .     S
Be39     B40    9.992   .     S
Be39     Be37    10.003   1_554     S
Be39     S300    10.009   .     S
B40     B38    10.003   1_554     S
B40     He299    10.006   .     S
N41     N42    9.993   1_565     S
N41     C44    9.998   .     S
N41     Be45    10.007   .     S
N42     N41    9.993   1_545     S
N42     C43    9.998   .     S
N42     Be47    10.007   .     S
C43     C44    9.991   1_545     S
C43     B48    10.003   .     S
C43     C51    10.005   .     S
C44     C43    9.991   1_565     S
C44     B46    10.003   .     S
C44     C52    10.005   .     S
Be45     B46    9.992   .     S
Be45     Be47    10.003   1_565     S
Be45     S168    10.009   .     S
B46     B48    10.003   1_565     S
B46     He167    10.006   .     S
Be47     B48    9.992   .     S
Be47     Be45    10.003   1_545     S
Be47     S172    10.009   .     S
B48     B46    10.003   1_545     S
B48     He171    10.006   .     S
N49     N50    9.993   1_565     S
N49     C52    9.998   .     S
N49     Be53    10.007   .     S
N50     N49    9.993   1_545     S
N50     C51    9.998   .     S
N50     Be55    10.007   .     S
C51     C52    9.991   1_545     S
C51     B56    10.003   .     S
C52     C51    9.991   1_565     S
C52     B54    10.003   .     S
Be53     B54    9.992   .     S
Be53     Be55    10.003   1_565     S
Be53     S124    10.009   .     S
B54     B56    10.003   1_565     S
B54     He123    10.006   .     S
Be55     B56    9.992   .     S
Be55     Be53    10.003   1_545     S
Be55     S128    10.009   .     S
B56     B54    10.003   1_545     S
B56     He127    10.006   .     S
N57     N58    9.993   1_655     S
N57     C60    9.998   .     S
N57     Be61    10.007   .     S
N58     N57    9.993   1_455     S
N58     C59    9.998   .     S
N58     Be63    10.007   .     S
C59     C60    9.991   1_455     S
C59     B64    10.003   .     S
C59     C67    10.005   .     S
C60     C59    9.991   1_655     S
C60     B62    10.003   .     S
C60     C68    10.005   .     S
Be61     B62    9.992   .     S
Be61     Be63    10.003   1_655     S
Be61     S276    10.009   .     S
B62     B64    10.003   1_655     S
B62     He275    10.006   .     S
Be63     B64    9.992   .     S
Be63     Be61    10.003   1_455     S
Be63     S280    10.009   .     S
B64     B62    10.003   1_455     S
B64     He279    10.006   .     S
N65     N66    9.993   1_655     S
N65     C68    9.998   .     S
N65     Be69    10.007   .     S
N66     N65    9.993   1_455     S
N66     C67    9.998   .     S
N66     Be71    10.007   .     S
C67     C68    9.991   1_455     S
C67     B72    10.003   .     S
C68     C67    9.991   1_655     S
C68     B70    10.003   .     S
Be69     B70    9.992   .     S
Be69     Be71    10.003   1_655     S
Be69     S132    10.009   .     S
B70     B72    10.003   1_655     S
B70     He131    10.006   .     S
Be71     B72    9.992   .     S
Be71     Be69    10.003   1_455     S
Be71     S136    10.009   .     S
B72     B70    10.003   1_455     S
B72     He135    10.006   .     S
N73     N74    9.993   1_556     S
N73     C75    9.998   .     S
N73     Be77    10.007   .     S
N74     N73    9.993   1_554     S
N74     C76    9.998   .     S
N74     Be79    10.007   .     S
C75     C76    9.991   1_556     S
C75     B78    10.003   .     S
C75     C83    10.005   .     S
C76     C75    9.991   1_554     S
C76     B80    10.003   .     S
C76     C84    10.005   .     S
Be77     B78    9.992   .     S
Be77     Be79    10.003   1_556     S
Be77     S228    10.009   .     S
B78     B80    10.003   1_556     S
B78     He227    10.006   .     S
Be79     B80    9.992   .     S
Be79     Be77    10.003   1_554     S
Be79     S232    10.009   .     S
B80     B78    10.003   1_554     S
B80     He231    10.006   .     S
N81     N82    9.993   1_556     S
N81     C83    9.998   .     S
N81     Be85    10.007   .     S
N82     N81    9.993   1_554     S
N82     C84    9.998   .     S
N82     Be87    10.007   .     S
C83     C84    9.991   1_556     S
C83     B86    10.003   .     S
C84     C83    9.991   1_554     S
C84     B88    10.003   .     S
Be85     B86    9.992   .     S
Be85     Be87    10.003   1_556     S
Be85     S152    10.009   .     S
B86     B88    10.003   1_556     S
B86     He151    10.006   .     S
Be87     B88    9.992   .     S
Be87     Be85    10.003   1_554     S
Be87     S156    10.009   .     S
B88     B86    10.003   1_554     S
B88     He155    10.006   .     S
N89     N90    9.993   1_565     S
N89     C91    9.998   .     S
N89     Be93    10.007   .     S
N90     N89    9.993   1_545     S
N90     C92    9.998   .     S
N90     Be95    10.007   .     S
C91     C92    9.991   1_565     S
C91     B94    10.003   .     S
C91     C99    10.005   .     S
C92     C91    9.991   1_545     S
C92     B96    10.003   .     S
C92     C100    10.005   .     S
Be93     B94    9.992   .     S
Be93     Be95    10.003   1_565     S
Be93     S256    10.009   .     S
B94     B96    10.003   1_565     S
B94     He255    10.006   .     S
Be95     B96    9.992   .     S
Be95     Be93    10.003   1_545     S
Be95     S260    10.009   .     S
B96     B94    10.003   1_545     S
B96     He259    10.006   .     S
N97     N98    9.993   1_565     S
N97     C99    9.998   .     S
N97     Be101    10.007   .     S
N98     N97    9.993   1_545     S
N98     C100    9.998   .     S
N98     Be103    10.007   .     S
C99     C100    9.991   1_565     S
C99     B102    10.003   .     S
C100     C99    9.991   1_545     S
C100     B104    10.003   .     S
Be101     B102    9.992   .     S
Be101     Be103    10.003   1_565     S
Be101     S160    10.009   .     S
B102     B104    10.003   1_565     S
B102     He159    10.006   .     S
Be103     B104    9.992   .     S
Be103     Be101    10.003   1_545     S
Be103     S164    10.009   .     S
B104     B102    10.003   1_545     S
B104     He163    10.006   .     S
N105     N106    9.993   1_655     S
N105     C107    9.998   .     S
N105     Be109    10.007   .     S
N106     N105    9.993   1_455     S
N106     C108    9.998   .     S
N106     Be111    10.007   .     S
C107     C108    9.991   1_655     S
C107     B110    10.003   .     S
C107     C115    10.005   .     S
C108     C107    9.991   1_455     S
C108     B112    10.003   .     S
C108     C116    10.005   .     S
Be109     B110    9.992   .     S
Be109     Be111    10.003   1_655     S
Be109     S236    10.009   .     S
B110     B112    10.003   1_655     S
B110     He235    10.006   .     S
Be111     B112    9.992   .     S
Be111     Be109    10.003   1_455     S
Be111     S240    10.009   .     S
B112     B110    10.003   1_455     S
B112     He239    10.006   .     S
N113     N114    9.993   1_655     S
N113     C115    9.998   .     S
N113     Be117    10.007   .     S
N114     N113    9.993   1_455     S
N114     C116    9.998   .     S
N114     Be119    10.007   .     S
C115     C116    9.991   1_655     S
C115     B118    10.003   .     S
C116     C115    9.991   1_455     S
C116     B120    10.003   .     S
Be117     B118    9.992   .     S
Be117     Be119    10.003   1_655     S
Be117     S176    10.009   .     S
B118     B120    10.003   1_655     S
B118     He175    10.006   .     S
Be119     B120    9.992   .     S
Be119     Be117    10.003   1_455     S
Be119     S180    10.009   .     S
B120     B118    10.003   1_455     S
B120     He179    10.006   .     S
V121     Er122    9.992   .     S
V121     S124    9.997   .     S
V121     Ce185    9.999   .     S
V121     V125    10.003   1_565     S
Er122     He123    9.997   .     S
Er122     Er126    9.998   1_565     S
Er122     Ti188    9.999   .     S
He123     S124    9.991   .     S
He123     Li187    10.007   .     S
S124     H186    10.009   .     S
V125     Er126    9.992   .     S
V125     S128    9.997   .     S
V125     Ce301    9.999   .     S
V125     V121    10.003   1_545     S
Er126     He127    9.997   .     S
Er126     Er122    9.998   1_545     S
Er126     Ti304    9.999   .     S
He127     S128    9.991   .     S
He127     Li303    10.007   .     S
S128     H302    10.009   .     S
V129     Er130    9.992   .     S
V129     S132    9.997   .     S
V129     Ce141    9.999   .     S
V129     V133    10.003   1_655     S
Er130     He131    9.997   .     S
Er130     Er134    9.998   1_655     S
Er130     Ti144    9.999   .     S
He131     S132    9.991   .     S
He131     Li143    10.007   .     S
S132     H142    10.009   .     S
V133     Er134    9.992   .     S
V133     S136    9.997   .     S
V133     Ce305    9.999   .     S
V133     V129    10.003   1_455     S
Er134     He135    9.997   .     S
Er134     Er130    9.998   1_455     S
Er134     Ti308    9.999   .     S
He135     S136    9.991   .     S
He135     Li307    10.007   .     S
S136     H306    10.009   .     S
Li137     Ti138    9.992   .     S
Li137     H140    10.001   .     S
Li137     He171    10.007   .     S
Li137     H148    10.009   .     S
Ti138     Ce139    9.996   .     S
Ti138     Er170    9.999   .     S
Ti138     Ce147    10.0   .     S
Ce139     H140    9.992   .     S
Ce139     V169    9.999   .     S
Ce139     Ti144    10.0   .     S
H140     S172    10.009   .     S
H140     Li143    10.009   .     S
Ce141     H142    9.992   .     S
Ce141     Ti144    9.996   .     S
Ce141     Ti146    10.0   .     S
H142     Li143    10.001   .     S
H142     Li145    10.009   .     S
Li143     Ti144    9.992   .     S
Li145     Ti146    9.992   .     S
Li145     H148    10.001   .     S
Li145     He155    10.007   .     S
Ti146     Ce147    9.996   .     S
Ti146     Er154    9.999   .     S
Ce147     H148    9.992   .     S
Ce147     V153    9.999   .     S
H148     S156    10.009   .     S
V149     Er150    9.992   .     S
V149     S152    9.997   .     S
V149     Ce263    9.999   .     S
V149     V153    10.003   1_556     S
Er150     He151    9.997   .     S
Er150     Er154    9.998   1_556     S
Er150     Ti262    9.999   .     S
He151     S152    9.991   .     S
He151     Li261    10.007   .     S
S152     H264    10.009   .     S
V153     Er154    9.992   .     S
V153     S156    9.997   .     S
V153     V149    10.003   1_554     S
Er154     He155    9.997   .     S
Er154     Er150    9.998   1_554     S
He155     S156    9.991   .     S
V157     Er158    9.992   .     S
V157     S160    9.997   .     S
V157     Ce215    9.999   .     S
V157     V161    10.003   1_565     S
Er158     He159    9.997   .     S
Er158     Er162    9.998   1_565     S
Er158     Ti214    9.999   .     S
He159     S160    9.991   .     S
He159     Li213    10.007   .     S
S160     H216    10.009   .     S
V161     Er162    9.992   .     S
V161     S164    9.997   .     S
V161     Ce291    9.999   .     S
V161     V157    10.003   1_545     S
Er162     He163    9.997   .     S
Er162     Er158    9.998   1_545     S
Er162     Ti290    9.999   .     S
He163     S164    9.991   .     S
He163     Li289    10.007   .     S
S164     H292    10.009   .     S
V165     Er166    9.992   .     S
V165     S168    9.997   .     S
V165     Ce207    9.999   .     S
V165     V169    10.003   1_565     S
Er166     He167    9.997   .     S
Er166     Er170    9.998   1_565     S
Er166     Ti206    9.999   .     S
He167     S168    9.991   .     S
He167     Li205    10.007   .     S
S168     H208    10.009   .     S
V169     Er170    9.992   .     S
V169     S172    9.997   .     S
V169     V165    10.003   1_545     S
Er170     He171    9.997   .     S
Er170     Er166    9.998   1_545     S
He171     S172    9.991   .     S
V173     Er174    9.992   .     S
V173     S176    9.997   .     S
V173     Ce203    9.999   .     S
V173     V177    10.003   1_655     S
Er174     He175    9.997   .     S
Er174     Er178    9.998   1_655     S
Er174     Ti202    9.999   .     S
He175     S176    9.991   .     S
He175     Li201    10.007   .     S
S176     H204    10.009   .     S
V177     Er178    9.992   .     S
V177     S180    9.997   .     S
V177     Ce191    9.999   .     S
V177     V173    10.003   1_455     S
Er178     He179    9.997   .     S
Er178     Er174    9.998   1_455     S
Er178     Ti190    9.999   .     S
He179     S180    9.991   .     S
He179     Li189    10.007   .     S
S180     H192    10.009   .     S
Li181     Ti182    9.992   .     S
Li181     H184    10.001   .     S
Li181     He199    10.007   .     S
Li181     H192    10.009   .     S
Ti182     Ce183    9.996   .     S
Ti182     Er198    9.999   .     S
Ti182     Ce191    10.0   .     S
Ce183     H184    9.992   .     S
Ce183     V197    9.999   .     S
Ce183     Ti188    10.0   .     S
H184     S200    10.009   .     S
H184     Li187    10.009   .     S
Ce185     H186    9.992   .     S
Ce185     Ti188    9.996   .     S
Ce185     Ti190    10.0   .     S
H186     Li187    10.001   .     S
H186     Li189    10.009   .     S
Li187     Ti188    9.992   .     S
Li189     Ti190    9.992   .     S
Li189     H192    10.001   .     S
Ti190     Ce191    9.996   .     S
Ce191     H192    9.992   .     S
V193     Er194    9.992   .     S
V193     S196    9.997   .     S
V193     Ce219    9.999   .     S
V193     V197    10.003   1_556     S
Er194     He195    9.997   .     S
Er194     Er198    9.998   1_556     S
Er194     Ti218    9.999   .     S
He195     S196    9.991   .     S
He195     Li217    10.007   .     S
S196     H220    10.009   .     S
V197     Er198    9.992   .     S
V197     S200    9.997   .     S
V197     V193    10.003   1_554     S
Er198     He199    9.997   .     S
Er198     Er194    9.998   1_554     S
He199     S200    9.991   .     S
Li201     Ti202    9.992   .     S
Li201     H204    10.001   .     S
Li201     H208    10.009   .     S
Ti202     Ce203    9.996   .     S
Ti202     Ce207    10.0   .     S
Ce203     H204    9.992   .     S
Ce203     Ti210    10.0   .     S
H204     Li209    10.009   .     S
Li205     Ti206    9.992   .     S
Li205     H208    10.001   .     S
Li205     H212    10.009   .     S
Ti206     Ce207    9.996   .     S
Ti206     Ce211    10.0   .     S
Ce207     H208    9.992   .     S
Li209     Ti210    9.992   .     S
Li209     H212    10.001   .     S
Li209     He231    10.007   .     S
Ti210     Ce211    9.996   .     S
Ti210     Er230    9.999   .     S
Ce211     H212    9.992   .     S
Ce211     V229    9.999   .     S
H212     S232    10.009   .     S
Li213     Ti214    9.992   .     S
Li213     H216    10.001   .     S
Li213     H220    10.009   .     S
Ti214     Ce215    9.996   .     S
Ti214     Ce219    10.0   .     S
Ce215     H216    9.992   .     S
Ce215     Ti222    10.0   .     S
H216     Li221    10.009   .     S
Li217     Ti218    9.992   .     S
Li217     H220    10.001   .     S
Li217     H224    10.009   .     S
Ti218     Ce219    9.996   .     S
Ti218     Ce223    10.0   .     S
Ce219     H220    9.992   .     S
Li221     Ti222    9.992   .     S
Li221     H224    10.001   .     S
Li221     He239    10.007   .     S
Ti222     Ce223    9.996   .     S
Ti222     Er238    9.999   .     S
Ce223     H224    9.992   .     S
Ce223     V237    9.999   .     S
H224     S240    10.009   .     S
V225     Er226    9.992   .     S
V225     S228    9.997   .     S
V225     Ce243    9.999   .     S
V225     V229    10.003   1_556     S
Er226     He227    9.997   .     S
Er226     Er230    9.998   1_556     S
Er226     Ti242    9.999   .     S
He227     S228    9.991   .     S
He227     Li241    10.007   .     S
S228     H244    10.009   .     S
V229     Er230    9.992   .     S
V229     S232    9.997   .     S
V229     V225    10.003   1_554     S
Er230     He231    9.997   .     S
Er230     Er226    9.998   1_554     S
He231     S232    9.991   .     S
V233     Er234    9.992   .     S
V233     S236    9.997   .     S
V233     Ce247    9.999   .     S
V233     V237    10.003   1_655     S
Er234     He235    9.997   .     S
Er234     Er238    9.998   1_655     S
Er234     Ti246    9.999   .     S
He235     S236    9.991   .     S
He235     Li245    10.007   .     S
S236     H248    10.009   .     S
V237     Er238    9.992   .     S
V237     S240    9.997   .     S
V237     V233    10.003   1_455     S
Er238     He239    9.997   .     S
Er238     Er234    9.998   1_455     S
He239     S240    9.991   .     S
Li241     Ti242    9.992   .     S
Li241     H244    10.001   .     S
Li241     H248    10.009   .     S
Ti242     Ce243    9.996   .     S
Ti242     Ce247    10.0   .     S
Ce243     H244    9.992   .     S
Ce243     Ti250    10.0   .     S
H244     Li249    10.009   .     S
Li245     Ti246    9.992   .     S
Li245     H248    10.001   .     S
Li245     H252    10.009   .     S
Ti246     Ce247    9.996   .     S
Ti246     Ce251    10.0   .     S
Ce247     H248    9.992   .     S
Li249     Ti250    9.992   .     S
Li249     H252    10.001   .     S
Li249     He255    10.007   .     S
Ti250     Ce251    9.996   .     S
Ti250     Er254    9.999   .     S
Ce251     H252    9.992   .     S
Ce251     V253    9.999   .     S
H252     S256    10.009   .     S
V253     Er254    9.992   .     S
V253     S256    9.997   .     S
V253     V257    10.003   1_565     S
Er254     He255    9.997   .     S
Er254     Er258    9.998   1_565     S
He255     S256    9.991   .     S
V257     Er258    9.992   .     S
V257     S260    9.997   .     S
V257     Ce267    9.999   .     S
V257     V253    10.003   1_545     S
Er258     He259    9.997   .     S
Er258     Er254    9.998   1_545     S
Er258     Ti266    9.999   .     S
He259     S260    9.991   .     S
He259     Li265    10.007   .     S
S260     H268    10.009   .     S
Li261     Ti262    9.992   .     S
Li261     H264    10.001   .     S
Li261     H272    10.009   .     S
Ti262     Ce263    9.996   .     S
Ti262     Ce271    10.0   .     S
Ce263     H264    9.992   .     S
Ce263     Ti266    10.0   .     S
H264     Li265    10.009   .     S
Li265     Ti266    9.992   .     S
Li265     H268    10.001   .     S
Ti266     Ce267    9.996   .     S
Ce267     H268    9.992   .     S
Ce267     Ti270    10.0   .     S
H268     Li269    10.009   .     S
Li269     Ti270    9.992   .     S
Li269     H272    10.001   .     S
Li269     He275    10.007   .     S
Ti270     Ce271    9.996   .     S
Ti270     Er274    9.999   .     S
Ce271     H272    9.992   .     S
Ce271     V273    9.999   .     S
H272     S276    10.009   .     S
V273     Er274    9.992   .     S
V273     S276    9.997   .     S
V273     V277    10.003   1_655     S
Er274     He275    9.997   .     S
Er274     Er278    9.998   1_655     S
He275     S276    9.991   .     S
V277     Er278    9.992   .     S
V277     S280    9.997   .     S
V277     Ce283    9.999   .     S
V277     V273    10.003   1_455     S
Er278     He279    9.997   .     S
Er278     Er274    9.998   1_455     S
Er278     Ti282    9.999   .     S
He279     S280    9.991   .     S
He279     Li281    10.007   .     S
S280     H284    10.009   .     S
Li281     Ti282    9.992   .     S
Li281     H284    10.001   .     S
Li281     H292    10.009   .     S
Ti282     Ce283    9.996   .     S
Ti282     Ce291    10.0   .     S
Ce283     H284    9.992   .     S
Ce283     Ti288    10.0   .     S
H284     Li287    10.009   .     S
Ce285     H286    9.992   .     S
Ce285     Ti288    9.996   .     S
Ce285     V293    9.999   .     S
Ce285     Ti290    10.0   .     S
H286     Li287    10.001   .     S
H286     S296    10.009   .     S
H286     Li289    10.009   .     S
Li287     Ti288    9.992   .     S
Li287     He295    10.007   .     S
Ti288     Er294    9.999   .     S
Li289     Ti290    9.992   .     S
Li289     H292    10.001   .     S
Ti290     Ce291    9.996   .     S
Ce291     H292    9.992   .     S
V293     Er294    9.992   .     S
V293     S296    9.997   .     S
V293     V297    10.003   1_556     S
Er294     He295    9.997   .     S
Er294     Er298    9.998   1_556     S
He295     S296    9.991   .     S
V297     Er298    9.992   .     S
V297     S300    9.997   .     S
V297     Ce309    9.999   .     S
V297     V293    10.003   1_554     S
Er298     He299    9.997   .     S
Er298     Er294    9.998   1_554     S
Er298     Ti312    9.999   .     S
He299     S300    9.991   .     S
He299     Li311    10.007   .     S
S300     H310    10.009   .     S
Ce301     H302    9.992   .     S
Ce301     Ti304    9.996   .     S
Ce301     Ti308    10.0   .     S
H302     Li303    10.001   .     S
H302     Li307    10.009   .     S
Li303     Ti304    9.992   .     S
Li303     H310    10.009   .     S
Ti304     Ce309    10.0   .     S
Ce305     H306    9.992   .     S
Ce305     Ti308    9.996   .     S
Ce305     Ti312    10.0   .     S
H306     Li307    10.001   .     S
H306     Li311    10.009   .     S
Li307     Ti308    9.992   .     S
Ce309     H310    9.992   .     S
Ce309     Ti312    9.996   .     S
H310     Li311    10.001   .     S
Li311     Ti312    9.992   .     S
