data_ucy
_audit_creation_date              2020-02-02
_audit_creation_method            'Pymatgen'
_symmetry_space_group_name_H-M    'P1'
_symmetry_Int_Tables_number       1
loop_
_symmetry_equiv_pos_as_xyz
  x,y,z
_cell_length_a                    157.5308
_cell_length_b                    157.5308
_cell_length_c                    157.5308
_cell_angle_alpha                 90.0
_cell_angle_beta                 90.0
_cell_angle_gamma                 90.0
loop_
_atom_site_label
_atom_site_type_symbol
_atom_site_fract_x
_atom_site_fract_y
_atom_site_fract_z
V1     V     0.5318   0.2276   0.2724
V2     V     0.5318   0.2724   0.2276
V3     V     0.4682   0.2276   0.2724
V4     V     0.4682   0.2724   0.2276
V5     V     0.2276   0.2724   0.5318
V6     V     0.2724   0.2276   0.5318
V7     V     0.2276   0.2724   0.4682
V8     V     0.2724   0.2276   0.4682
V9     V     0.2276   0.5318   0.2724
V10     V     0.2724   0.5318   0.2276
V11     V     0.2276   0.4682   0.2724
V12     V     0.2724   0.4682   0.2276
V13     V     0.2276   0.2276   0.9682
V14     V     0.2724   0.2724   0.9682
V15     V     0.2276   0.2276   0.0318
V16     V     0.2724   0.2724   0.0318
V17     V     0.2276   0.9682   0.2276
V18     V     0.2724   0.9682   0.2724
V19     V     0.2276   0.0318   0.2276
V20     V     0.2724   0.0318   0.2724
V21     V     0.9682   0.2276   0.2276
V22     V     0.9682   0.2724   0.2724
V23     V     0.0318   0.2276   0.2276
V24     V     0.0318   0.2724   0.2724
V25     V     0.2276   0.9682   0.7724
V26     V     0.2724   0.9682   0.7276
V27     V     0.2276   0.0318   0.7724
V28     V     0.2724   0.0318   0.7276
Er29     Er     0.8093   0.7644   0.5682
Er30     Er     0.7644   0.8093   0.5682
Er31     Er     0.1907   0.2356   0.5682
Er32     Er     0.2356   0.1907   0.5682
Er33     Er     0.2356   0.8093   0.5682
Er34     Er     0.1907   0.7644   0.5682
Er35     Er     0.8093   0.2356   0.5682
Er36     Er     0.7644   0.1907   0.5682
Er37     Er     0.8093   0.0682   0.7356
Er38     Er     0.7644   0.0682   0.6907
Er39     Er     0.0682   0.8093   0.7356
Er40     Er     0.0682   0.7644   0.6907
Er41     Er     0.1907   0.0682   0.2644
Er42     Er     0.2356   0.0682   0.3093
Er43     Er     0.0682   0.1907   0.2644
Er44     Er     0.0682   0.2356   0.3093
Er45     Er     0.8093   0.7644   0.4318
Er46     Er     0.7644   0.8093   0.4318
Er47     Er     0.1907   0.2356   0.4318
Er48     Er     0.2356   0.1907   0.4318
Er49     Er     0.9318   0.1907   0.2644
Er50     Er     0.9318   0.2356   0.3093
Er51     Er     0.9318   0.8093   0.7356
Er52     Er     0.9318   0.7644   0.6907
Er53     Er     0.1907   0.9318   0.2644
Er54     Er     0.2356   0.9318   0.3093
Er55     Er     0.8093   0.9318   0.7356
Er56     Er     0.7644   0.9318   0.6907
Er57     Er     0.1907   0.0682   0.7356
Er58     Er     0.2356   0.0682   0.6907
Er59     Er     0.0682   0.1907   0.7356
Er60     Er     0.0682   0.2356   0.6907
Er61     Er     0.0682   0.8093   0.2644
Er62     Er     0.0682   0.7644   0.3093
Er63     Er     0.8093   0.0682   0.2644
Er64     Er     0.7644   0.0682   0.3093
Er65     Er     0.2356   0.8093   0.4318
Er66     Er     0.1907   0.7644   0.4318
Er67     Er     0.8093   0.2356   0.4318
Er68     Er     0.7644   0.1907   0.4318
Er69     Er     0.1907   0.9318   0.7356
Er70     Er     0.2356   0.9318   0.6907
Er71     Er     0.9318   0.1907   0.7356
Er72     Er     0.9318   0.2356   0.6907
Er73     Er     0.8093   0.9318   0.2644
Er74     Er     0.7644   0.9318   0.3093
Er75     Er     0.9318   0.8093   0.2644
Er76     Er     0.9318   0.7644   0.3093
Ce77     Ce     0.846   0.0317   0.6989
Ce78     Ce     0.8011   0.0317   0.654
Ti79     Ti     0.7933   0.1168   0.6618
S80     S     0.83   0.0803   0.6252
Ti81     Ti     0.8382   0.1168   0.7067
S82     S     0.8748   0.0803   0.67
Ce83     Ce     0.8011   0.154   0.5317
Ce84     Ce     0.846   0.1989   0.5317
Ti85     Ti     0.8382   0.2067   0.6168
S86     S     0.8748   0.17   0.5803
Ti87     Ti     0.7933   0.1618   0.6168
S88     S     0.83   0.1252   0.5803
Ce89     Ce     0.9683   0.154   0.6989
Ce90     Ce     0.9683   0.1989   0.654
Ti91     Ti     0.8832   0.2067   0.6618
S92     S     0.9197   0.17   0.6252
Ti93     Ti     0.8832   0.1618   0.7067
S94     S     0.9197   0.1252   0.67
Ce95     Ce     0.154   0.1989   0.5317
Ce96     Ce     0.1989   0.154   0.5317
Ti97     Ti     0.2067   0.1618   0.6168
S98     S     0.17   0.1252   0.5803
Ti99     Ti     0.1618   0.2067   0.6168
S100     S     0.1252   0.17   0.5803
Ce101     Ce     0.0317   0.154   0.6989
Ce102     Ce     0.0317   0.1989   0.654
Ti103     Ti     0.1168   0.2067   0.6618
S104     S     0.0803   0.17   0.6252
Ti105     Ti     0.1168   0.1618   0.7067
S106     S     0.0803   0.1252   0.67
Ce107     Ce     0.154   0.0317   0.6989
Ce108     Ce     0.1989   0.0317   0.654
Ti109     Ti     0.2067   0.1168   0.6618
S110     S     0.17   0.0803   0.6252
Ti111     Ti     0.1618   0.1168   0.7067
S112     S     0.1252   0.0803   0.67
Ce113     Ce     0.846   0.8011   0.5317
Ce114     Ce     0.8011   0.846   0.5317
Ti115     Ti     0.7933   0.8382   0.6168
S116     S     0.83   0.8748   0.5803
Ti117     Ti     0.8382   0.7933   0.6168
S118     S     0.8748   0.83   0.5803
Ce119     Ce     0.9683   0.846   0.6989
Ce120     Ce     0.9683   0.8011   0.654
Ti121     Ti     0.8832   0.7933   0.6618
S122     S     0.9197   0.83   0.6252
Ti123     Ti     0.8832   0.8382   0.7067
S124     S     0.9197   0.8748   0.67
Ce125     Ce     0.846   0.9683   0.6989
Ce126     Ce     0.8011   0.9683   0.654
Ti127     Ti     0.7933   0.8832   0.6618
S128     S     0.83   0.9197   0.6252
Ti129     Ti     0.8382   0.8832   0.7067
S130     S     0.8748   0.9197   0.67
Ce131     Ce     0.0317   0.846   0.6989
Ce132     Ce     0.0317   0.8011   0.654
Ti133     Ti     0.1168   0.7933   0.6618
S134     S     0.0803   0.83   0.6252
Ti135     Ti     0.1168   0.8382   0.7067
S136     S     0.0803   0.8748   0.67
Ce137     Ce     0.154   0.8011   0.5317
Ce138     Ce     0.1989   0.846   0.5317
Ti139     Ti     0.2067   0.8382   0.6168
S140     S     0.17   0.8748   0.5803
Ti141     Ti     0.1618   0.7933   0.6168
S142     S     0.1252   0.83   0.5803
Ce143     Ce     0.154   0.9683   0.6989
Ce144     Ce     0.1989   0.9683   0.654
Ti145     Ti     0.2067   0.8832   0.6618
S146     S     0.17   0.9197   0.6252
Ti147     Ti     0.1618   0.8832   0.7067
S148     S     0.1252   0.9197   0.67
Ce149     Ce     0.846   0.8011   0.4683
Ce150     Ce     0.8011   0.846   0.4683
Ti151     Ti     0.7933   0.8382   0.3832
S152     S     0.83   0.8748   0.4197
Ti153     Ti     0.8382   0.7933   0.3832
S154     S     0.8748   0.83   0.4197
Ce155     Ce     0.9683   0.846   0.3011
Ce156     Ce     0.9683   0.8011   0.346
Ti157     Ti     0.8832   0.7933   0.3382
S158     S     0.9197   0.83   0.3748
Ti159     Ti     0.8832   0.8382   0.2933
S160     S     0.9197   0.8748   0.33
Ce161     Ce     0.846   0.9683   0.3011
Ce162     Ce     0.8011   0.9683   0.346
Ti163     Ti     0.7933   0.8832   0.3382
S164     S     0.83   0.9197   0.3748
Ti165     Ti     0.8382   0.8832   0.2933
S166     S     0.8748   0.9197   0.33
Ce167     Ce     0.9683   0.154   0.3011
Ce168     Ce     0.9683   0.1989   0.346
Ti169     Ti     0.8832   0.2067   0.3382
S170     S     0.9197   0.17   0.3748
Ti171     Ti     0.8832   0.1618   0.2933
S172     S     0.9197   0.1252   0.33
Ce173     Ce     0.846   0.0317   0.3011
Ce174     Ce     0.8011   0.0317   0.346
Ti175     Ti     0.8382   0.1168   0.2933
S176     S     0.8748   0.0803   0.33
Ti177     Ti     0.7933   0.1168   0.3382
S178     S     0.83   0.0803   0.3748
Ce179     Ce     0.8011   0.154   0.4683
Ce180     Ce     0.846   0.1989   0.4683
Ti181     Ti     0.8382   0.2067   0.3832
S182     S     0.8748   0.17   0.4197
Ti183     Ti     0.7933   0.1618   0.3832
S184     S     0.83   0.1252   0.4197
Ce185     Ce     0.154   0.9683   0.3011
Ce186     Ce     0.1989   0.9683   0.346
Ti187     Ti     0.2067   0.8832   0.3382
S188     S     0.17   0.9197   0.3748
Ti189     Ti     0.1618   0.8832   0.2933
S190     S     0.1252   0.9197   0.33
Ce191     Ce     0.0317   0.846   0.3011
Ce192     Ce     0.0317   0.8011   0.346
Ti193     Ti     0.1168   0.8382   0.2933
S194     S     0.0803   0.8748   0.33
Ti195     Ti     0.1168   0.7933   0.3382
S196     S     0.0803   0.83   0.3748
Ce197     Ce     0.154   0.8011   0.4683
Ce198     Ce     0.1989   0.846   0.4683
Ti199     Ti     0.2067   0.8382   0.3832
S200     S     0.17   0.8748   0.4197
Ti201     Ti     0.1618   0.7933   0.3832
S202     S     0.1252   0.83   0.4197
Ce203     Ce     0.0317   0.154   0.3011
Ce204     Ce     0.0317   0.1989   0.346
Ti205     Ti     0.1168   0.2067   0.3382
S206     S     0.0803   0.17   0.3748
Ti207     Ti     0.1168   0.1618   0.2933
S208     S     0.0803   0.1252   0.33
Ce209     Ce     0.154   0.1989   0.4683
Ce210     Ce     0.1989   0.154   0.4683
Ti211     Ti     0.1618   0.2067   0.3832
S212     S     0.1252   0.17   0.4197
Ti213     Ti     0.2067   0.1618   0.3832
S214     S     0.17   0.1252   0.4197
Ce215     Ce     0.154   0.0317   0.3011
Ce216     Ce     0.1989   0.0317   0.346
Ti217     Ti     0.2067   0.1168   0.3382
S218     S     0.17   0.0803   0.3748
Ti219     Ti     0.1618   0.1168   0.2933
S220     S     0.1252   0.0803   0.33
V221     V     0.9682   0.2276   0.7724
V222     V     0.9682   0.2724   0.7276
V223     V     0.0318   0.2276   0.7724
V224     V     0.0318   0.2724   0.7276
V225     V     0.7724   0.9682   0.7724
V226     V     0.7276   0.9682   0.7276
V227     V     0.7724   0.0318   0.7724
V228     V     0.7276   0.0318   0.7276
V229     V     0.7724   0.2276   0.9682
V230     V     0.7276   0.2724   0.9682
V231     V     0.7724   0.2276   0.0318
V232     V     0.7276   0.2724   0.0318
Er233     Er     0.5682   0.8093   0.7644
Er234     Er     0.5682   0.7644   0.8093
Er235     Er     0.5682   0.1907   0.2356
Er236     Er     0.5682   0.2356   0.1907
Er237     Er     0.5682   0.2356   0.8093
Er238     Er     0.5682   0.1907   0.7644
Er239     Er     0.5682   0.8093   0.2356
Er240     Er     0.5682   0.7644   0.1907
Er241     Er     0.2644   0.1907   0.0682
Er242     Er     0.3093   0.2356   0.0682
Er243     Er     0.7356   0.8093   0.0682
Er244     Er     0.6907   0.7644   0.0682
Er245     Er     0.7356   0.0682   0.8093
Er246     Er     0.6907   0.0682   0.7644
Er247     Er     0.2644   0.0682   0.1907
Er248     Er     0.3093   0.0682   0.2356
Er249     Er     0.7356   0.8093   0.9318
Er250     Er     0.6907   0.7644   0.9318
Er251     Er     0.4318   0.1907   0.2356
Er252     Er     0.4318   0.2356   0.1907
Er253     Er     0.4318   0.8093   0.7644
Er254     Er     0.4318   0.7644   0.8093
Er255     Er     0.2644   0.9318   0.1907
Er256     Er     0.3093   0.9318   0.2356
Er257     Er     0.7356   0.9318   0.8093
Er258     Er     0.6907   0.9318   0.7644
Er259     Er     0.2644   0.1907   0.9318
Er260     Er     0.3093   0.2356   0.9318
Er261     Er     0.7356   0.1907   0.0682
Er262     Er     0.6907   0.2356   0.0682
Er263     Er     0.7356   0.0682   0.1907
Er264     Er     0.6907   0.0682   0.2356
Er265     Er     0.2644   0.0682   0.8093
Er266     Er     0.3093   0.0682   0.7644
Er267     Er     0.2644   0.8093   0.0682
Er268     Er     0.3093   0.7644   0.0682
Er269     Er     0.7356   0.1907   0.9318
Er270     Er     0.6907   0.2356   0.9318
Er271     Er     0.2644   0.8093   0.9318
Er272     Er     0.3093   0.7644   0.9318
Er273     Er     0.4318   0.2356   0.8093
Er274     Er     0.4318   0.1907   0.7644
Er275     Er     0.7356   0.9318   0.1907
Er276     Er     0.6907   0.9318   0.2356
Er277     Er     0.4318   0.8093   0.2356
Er278     Er     0.4318   0.7644   0.1907
Er279     Er     0.2644   0.9318   0.8093
Er280     Er     0.3093   0.9318   0.7644
Ce281     Ce     0.6989   0.846   0.0317
Ce282     Ce     0.654   0.8011   0.0317
Ti283     Ti     0.6618   0.7933   0.1168
S284     S     0.6252   0.83   0.0803
Ti285     Ti     0.7067   0.8382   0.1168
S286     S     0.67   0.8748   0.0803
Ce287     Ce     0.5317   0.8011   0.154
Ce288     Ce     0.5317   0.846   0.1989
Ti289     Ti     0.6168   0.8382   0.2067
S290     S     0.5803   0.8748   0.17
Ti291     Ti     0.6168   0.7933   0.1618
S292     S     0.5803   0.83   0.1252
Ce293     Ce     0.6989   0.9683   0.154
Ce294     Ce     0.654   0.9683   0.1989
Ti295     Ti     0.6618   0.8832   0.2067
S296     S     0.6252   0.9197   0.17
Ti297     Ti     0.7067   0.8832   0.1618
S298     S     0.67   0.9197   0.1252
Ce299     Ce     0.5317   0.154   0.1989
Ce300     Ce     0.5317   0.1989   0.154
Ti301     Ti     0.6168   0.2067   0.1618
S302     S     0.5803   0.17   0.1252
Ti303     Ti     0.6168   0.1618   0.2067
S304     S     0.5803   0.1252   0.17
Ce305     Ce     0.6989   0.0317   0.154
Ce306     Ce     0.654   0.0317   0.1989
Ti307     Ti     0.6618   0.1168   0.2067
S308     S     0.6252   0.0803   0.17
Ti309     Ti     0.7067   0.1168   0.1618
S310     S     0.67   0.0803   0.1252
Ce311     Ce     0.6989   0.154   0.0317
Ce312     Ce     0.654   0.1989   0.0317
Ti313     Ti     0.6618   0.2067   0.1168
S314     S     0.6252   0.17   0.0803
Ti315     Ti     0.7067   0.1618   0.1168
S316     S     0.67   0.1252   0.0803
Ce317     Ce     0.5317   0.846   0.8011
Ce318     Ce     0.5317   0.8011   0.846
Ti319     Ti     0.6168   0.7933   0.8382
S320     S     0.5803   0.83   0.8748
Ti321     Ti     0.6168   0.8382   0.7933
S322     S     0.5803   0.8748   0.83
Ce323     Ce     0.6989   0.9683   0.846
Ce324     Ce     0.654   0.9683   0.8011
Ti325     Ti     0.6618   0.8832   0.7933
S326     S     0.6252   0.9197   0.83
Ti327     Ti     0.7067   0.8832   0.8382
S328     S     0.67   0.9197   0.8748
Ce329     Ce     0.6989   0.846   0.9683
Ce330     Ce     0.654   0.8011   0.9683
Ti331     Ti     0.6618   0.7933   0.8832
S332     S     0.6252   0.83   0.9197
Ti333     Ti     0.7067   0.8382   0.8832
S334     S     0.67   0.8748   0.9197
Ce335     Ce     0.6989   0.0317   0.846
Ce336     Ce     0.654   0.0317   0.8011
Ti337     Ti     0.6618   0.1168   0.7933
S338     S     0.6252   0.0803   0.83
Ti339     Ti     0.7067   0.1168   0.8382
S340     S     0.67   0.0803   0.8748
Ce341     Ce     0.5317   0.154   0.8011
Ce342     Ce     0.5317   0.1989   0.846
Ti343     Ti     0.6168   0.2067   0.8382
S344     S     0.5803   0.17   0.8748
Ti345     Ti     0.6168   0.1618   0.7933
S346     S     0.5803   0.1252   0.83
Ce347     Ce     0.6989   0.154   0.9683
Ce348     Ce     0.654   0.1989   0.9683
Ti349     Ti     0.6618   0.2067   0.8832
S350     S     0.6252   0.17   0.9197
Ti351     Ti     0.7067   0.1618   0.8832
S352     S     0.67   0.1252   0.9197
Ce353     Ce     0.4683   0.846   0.8011
Ce354     Ce     0.4683   0.8011   0.846
Ti355     Ti     0.3832   0.7933   0.8382
S356     S     0.4197   0.83   0.8748
Ti357     Ti     0.3832   0.8382   0.7933
S358     S     0.4197   0.8748   0.83
Ce359     Ce     0.3011   0.846   0.9683
Ce360     Ce     0.346   0.8011   0.9683
Ti361     Ti     0.3382   0.7933   0.8832
S362     S     0.3748   0.83   0.9197
Ti363     Ti     0.2933   0.8382   0.8832
S364     S     0.33   0.8748   0.9197
Ce365     Ce     0.3011   0.9683   0.846
Ce366     Ce     0.346   0.9683   0.8011
Ti367     Ti     0.3382   0.8832   0.7933
S368     S     0.3748   0.9197   0.83
Ti369     Ti     0.2933   0.8832   0.8382
S370     S     0.33   0.9197   0.8748
Ce371     Ce     0.3011   0.9683   0.154
Ce372     Ce     0.346   0.9683   0.1989
Ti373     Ti     0.3382   0.8832   0.2067
S374     S     0.3748   0.9197   0.17
Ti375     Ti     0.2933   0.8832   0.1618
S376     S     0.33   0.9197   0.1252
Ce377     Ce     0.3011   0.846   0.0317
Ce378     Ce     0.346   0.8011   0.0317
Ti379     Ti     0.2933   0.8382   0.1168
S380     S     0.33   0.8748   0.0803
Ti381     Ti     0.3382   0.7933   0.1168
S382     S     0.3748   0.83   0.0803
Ce383     Ce     0.4683   0.8011   0.154
Ce384     Ce     0.4683   0.846   0.1989
Ti385     Ti     0.3832   0.8382   0.2067
S386     S     0.4197   0.8748   0.17
Ti387     Ti     0.3832   0.7933   0.1618
S388     S     0.4197   0.83   0.1252
Ce389     Ce     0.3011   0.154   0.9683
Ce390     Ce     0.346   0.1989   0.9683
Ti391     Ti     0.3382   0.2067   0.8832
S392     S     0.3748   0.17   0.9197
Ti393     Ti     0.2933   0.1618   0.8832
S394     S     0.33   0.1252   0.9197
Ce395     Ce     0.3011   0.0317   0.846
Ce396     Ce     0.346   0.0317   0.8011
Ti397     Ti     0.2933   0.1168   0.8382
S398     S     0.33   0.0803   0.8748
Ti399     Ti     0.3382   0.1168   0.7933
S400     S     0.3748   0.0803   0.83
Ce401     Ce     0.4683   0.154   0.8011
Ce402     Ce     0.4683   0.1989   0.846
Ti403     Ti     0.3832   0.2067   0.8382
S404     S     0.4197   0.17   0.8748
Ti405     Ti     0.3832   0.1618   0.7933
S406     S     0.4197   0.1252   0.83
Ce407     Ce     0.3011   0.0317   0.154
Ce408     Ce     0.346   0.0317   0.1989
Ti409     Ti     0.3382   0.1168   0.2067
S410     S     0.3748   0.0803   0.17
Ti411     Ti     0.2933   0.1168   0.1618
S412     S     0.33   0.0803   0.1252
Ce413     Ce     0.4683   0.154   0.1989
Ce414     Ce     0.4683   0.1989   0.154
Ti415     Ti     0.3832   0.1618   0.2067
S416     S     0.4197   0.1252   0.17
Ti417     Ti     0.3832   0.2067   0.1618
S418     S     0.4197   0.17   0.1252
Ce419     Ce     0.3011   0.154   0.0317
Ce420     Ce     0.346   0.1989   0.0317
Ti421     Ti     0.3382   0.2067   0.1168
S422     S     0.3748   0.17   0.0803
Ti423     Ti     0.2933   0.1618   0.1168
S424     S     0.33   0.1252   0.0803
V425     V     0.7724   0.9682   0.2276
V426     V     0.7276   0.9682   0.2724
V427     V     0.7724   0.0318   0.2276
V428     V     0.7276   0.0318   0.2724
V429     V     0.7724   0.7724   0.9682
V430     V     0.7276   0.7276   0.9682
V431     V     0.7724   0.7724   0.0318
V432     V     0.7276   0.7276   0.0318
V433     V     0.9682   0.7724   0.7724
V434     V     0.9682   0.7276   0.7276
V435     V     0.0318   0.7724   0.7724
V436     V     0.0318   0.7276   0.7276
V437     V     0.2276   0.7724   0.9682
V438     V     0.2724   0.7276   0.9682
V439     V     0.2276   0.7724   0.0318
V440     V     0.2724   0.7276   0.0318
Er441     Er     0.8093   0.5682   0.7644
Er442     Er     0.7644   0.5682   0.8093
Er443     Er     0.1907   0.5682   0.2356
Er444     Er     0.2356   0.5682   0.1907
Er445     Er     0.2356   0.5682   0.8093
Er446     Er     0.1907   0.5682   0.7644
Er447     Er     0.8093   0.5682   0.2356
Er448     Er     0.7644   0.5682   0.1907
Er449     Er     0.0682   0.7356   0.8093
Er450     Er     0.0682   0.6907   0.7644
Er451     Er     0.8093   0.7356   0.0682
Er452     Er     0.7644   0.6907   0.0682
Er453     Er     0.1907   0.2644   0.0682
Er454     Er     0.2356   0.3093   0.0682
Er455     Er     0.0682   0.2644   0.1907
Er456     Er     0.0682   0.3093   0.2356
Er457     Er     0.8093   0.7356   0.9318
Er458     Er     0.7644   0.6907   0.9318
Er459     Er     0.8093   0.4318   0.7644
Er460     Er     0.7644   0.4318   0.8093
Er461     Er     0.1907   0.4318   0.2356
Er462     Er     0.2356   0.4318   0.1907
Er463     Er     0.1907   0.2644   0.9318
Er464     Er     0.2356   0.3093   0.9318
Er465     Er     0.9318   0.7356   0.8093
Er466     Er     0.9318   0.6907   0.7644
Er467     Er     0.9318   0.2644   0.1907
Er468     Er     0.9318   0.3093   0.2356
Er469     Er     0.1907   0.7356   0.0682
Er470     Er     0.2356   0.6907   0.0682
Er471     Er     0.0682   0.7356   0.1907
Er472     Er     0.0682   0.6907   0.2356
Er473     Er     0.8093   0.2644   0.0682
Er474     Er     0.7644   0.3093   0.0682
Er475     Er     0.0682   0.2644   0.8093
Er476     Er     0.0682   0.3093   0.7644
Er477     Er     0.1907   0.7356   0.9318
Er478     Er     0.2356   0.6907   0.9318
Er479     Er     0.8093   0.2644   0.9318
Er480     Er     0.7644   0.3093   0.9318
Er481     Er     0.2356   0.4318   0.8093
Er482     Er     0.1907   0.4318   0.7644
Er483     Er     0.8093   0.4318   0.2356
Er484     Er     0.7644   0.4318   0.1907
Er485     Er     0.9318   0.7356   0.1907
Er486     Er     0.9318   0.6907   0.2356
Er487     Er     0.9318   0.2644   0.8093
Er488     Er     0.9318   0.3093   0.7644
Ce489     Ce     0.846   0.4683   0.8011
Ce490     Ce     0.8011   0.4683   0.846
Ti491     Ti     0.7933   0.3832   0.8382
S492     S     0.83   0.4197   0.8748
Ti493     Ti     0.8382   0.3832   0.7933
S494     S     0.8748   0.4197   0.83
Ce495     Ce     0.846   0.3011   0.9683
Ce496     Ce     0.8011   0.346   0.9683
Ti497     Ti     0.7933   0.3382   0.8832
S498     S     0.83   0.3748   0.9197
Ti499     Ti     0.8382   0.2933   0.8832
S500     S     0.8748   0.33   0.9197
Ce501     Ce     0.9683   0.3011   0.846
Ce502     Ce     0.9683   0.346   0.8011
Ti503     Ti     0.8832   0.3382   0.7933
S504     S     0.9197   0.3748   0.83
Ti505     Ti     0.8832   0.2933   0.8382
S506     S     0.9197   0.33   0.8748
Ce507     Ce     0.154   0.3011   0.9683
Ce508     Ce     0.1989   0.346   0.9683
Ti509     Ti     0.2067   0.3382   0.8832
S510     S     0.17   0.3748   0.9197
Ti511     Ti     0.1618   0.2933   0.8832
S512     S     0.1252   0.33   0.9197
Ce513     Ce     0.0317   0.3011   0.846
Ce514     Ce     0.0317   0.346   0.8011
Ti515     Ti     0.1168   0.2933   0.8382
S516     S     0.0803   0.33   0.8748
Ti517     Ti     0.1168   0.3382   0.7933
S518     S     0.0803   0.3748   0.83
Ce519     Ce     0.154   0.4683   0.8011
Ce520     Ce     0.1989   0.4683   0.846
Ti521     Ti     0.2067   0.3832   0.8382
S522     S     0.17   0.4197   0.8748
Ti523     Ti     0.1618   0.3832   0.7933
S524     S     0.1252   0.4197   0.83
Ce525     Ce     0.9683   0.3011   0.154
Ce526     Ce     0.9683   0.346   0.1989
Ti527     Ti     0.8832   0.3382   0.2067
S528     S     0.9197   0.3748   0.17
Ti529     Ti     0.8832   0.2933   0.1618
S530     S     0.9197   0.33   0.1252
Ce531     Ce     0.846   0.3011   0.0317
Ce532     Ce     0.8011   0.346   0.0317
Ti533     Ti     0.8382   0.2933   0.1168
S534     S     0.8748   0.33   0.0803
Ti535     Ti     0.7933   0.3382   0.1168
S536     S     0.83   0.3748   0.0803
Ce537     Ce     0.8011   0.4683   0.154
Ce538     Ce     0.846   0.4683   0.1989
Ti539     Ti     0.8382   0.3832   0.2067
S540     S     0.8748   0.4197   0.17
Ti541     Ti     0.7933   0.3832   0.1618
S542     S     0.83   0.4197   0.1252
Ce543     Ce     0.154   0.3011   0.0317
Ce544     Ce     0.1989   0.346   0.0317
Ti545     Ti     0.2067   0.3382   0.1168
S546     S     0.17   0.3748   0.0803
Ti547     Ti     0.1618   0.2933   0.1168
S548     S     0.1252   0.33   0.0803
Ce549     Ce     0.154   0.4683   0.1989
Ce550     Ce     0.1989   0.4683   0.154
Ti551     Ti     0.2067   0.3832   0.1618
S552     S     0.17   0.4197   0.1252
Ti553     Ti     0.1618   0.3832   0.2067
S554     S     0.1252   0.4197   0.17
Ce555     Ce     0.0317   0.3011   0.154
Ce556     Ce     0.0317   0.346   0.1989
Ti557     Ti     0.1168   0.3382   0.2067
S558     S     0.0803   0.3748   0.17
Ti559     Ti     0.1168   0.2933   0.1618
S560     S     0.0803   0.33   0.1252
Ce561     Ce     0.0317   0.6989   0.846
Ce562     Ce     0.0317   0.654   0.8011
Ti563     Ti     0.1168   0.6618   0.7933
S564     S     0.0803   0.6252   0.83
Ti565     Ti     0.1168   0.7067   0.8382
S566     S     0.0803   0.67   0.8748
Ce567     Ce     0.154   0.5317   0.8011
Ce568     Ce     0.1989   0.5317   0.846
Ti569     Ti     0.2067   0.6168   0.8382
S570     S     0.17   0.5803   0.8748
Ti571     Ti     0.1618   0.6168   0.7933
S572     S     0.1252   0.5803   0.83
Ce573     Ce     0.154   0.6989   0.9683
Ce574     Ce     0.1989   0.654   0.9683
Ti575     Ti     0.2067   0.6618   0.8832
S576     S     0.17   0.6252   0.9197
Ti577     Ti     0.1618   0.7067   0.8832
S578     S     0.1252   0.67   0.9197
Ce579     Ce     0.154   0.5317   0.1989
Ce580     Ce     0.1989   0.5317   0.154
Ti581     Ti     0.2067   0.6168   0.1618
S582     S     0.17   0.5803   0.1252
Ti583     Ti     0.1618   0.6168   0.2067
S584     S     0.1252   0.5803   0.17
Ce585     Ce     0.154   0.6989   0.0317
Ce586     Ce     0.1989   0.654   0.0317
Ti587     Ti     0.2067   0.6618   0.1168
S588     S     0.17   0.6252   0.0803
Ti589     Ti     0.1618   0.7067   0.1168
S590     S     0.1252   0.67   0.0803
Ce591     Ce     0.0317   0.6989   0.154
Ce592     Ce     0.0317   0.654   0.1989
Ti593     Ti     0.1168   0.6618   0.2067
S594     S     0.0803   0.6252   0.17
Ti595     Ti     0.1168   0.7067   0.1618
S596     S     0.0803   0.67   0.1252
Ce597     Ce     0.846   0.6989   0.9683
Ce598     Ce     0.8011   0.654   0.9683
Ti599     Ti     0.7933   0.6618   0.8832
S600     S     0.83   0.6252   0.9197
Ti601     Ti     0.8382   0.7067   0.8832
S602     S     0.8748   0.67   0.9197
Ce603     Ce     0.9683   0.6989   0.846
Ce604     Ce     0.9683   0.654   0.8011
Ti605     Ti     0.8832   0.6618   0.7933
S606     S     0.9197   0.6252   0.83
Ti607     Ti     0.8832   0.7067   0.8382
S608     S     0.9197   0.67   0.8748
Ce609     Ce     0.846   0.5317   0.8011
Ce610     Ce     0.8011   0.5317   0.846
Ti611     Ti     0.7933   0.6168   0.8382
S612     S     0.83   0.5803   0.8748
Ti613     Ti     0.8382   0.6168   0.7933
S614     S     0.8748   0.5803   0.83
Ce615     Ce     0.846   0.6989   0.0317
Ce616     Ce     0.8011   0.654   0.0317
Ti617     Ti     0.7933   0.6618   0.1168
S618     S     0.83   0.6252   0.0803
Ti619     Ti     0.8382   0.7067   0.1168
S620     S     0.8748   0.67   0.0803
Ce621     Ce     0.8011   0.5317   0.154
Ce622     Ce     0.846   0.5317   0.1989
Ti623     Ti     0.8382   0.6168   0.2067
S624     S     0.8748   0.5803   0.17
Ti625     Ti     0.7933   0.6168   0.1618
S626     S     0.83   0.5803   0.1252
Ce627     Ce     0.9683   0.6989   0.154
Ce628     Ce     0.9683   0.654   0.1989
Ti629     Ti     0.8832   0.6618   0.2067
S630     S     0.9197   0.6252   0.17
Ti631     Ti     0.8832   0.7067   0.1618
S632     S     0.9197   0.67   0.1252
V633     V     0.9682   0.7724   0.2276
V634     V     0.9682   0.7276   0.2724
V635     V     0.0318   0.7724   0.2276
V636     V     0.0318   0.7276   0.2724
V637     V     0.5318   0.7724   0.7276
V638     V     0.5318   0.7276   0.7724
V639     V     0.4682   0.7724   0.7276
V640     V     0.4682   0.7276   0.7724
V641     V     0.7724   0.7276   0.5318
V642     V     0.7276   0.7724   0.5318
V643     V     0.7724   0.7276   0.4682
V644     V     0.7276   0.7724   0.4682
V645     V     0.7724   0.5318   0.7276
V646     V     0.7276   0.5318   0.7724
V647     V     0.7724   0.4682   0.7276
V648     V     0.7276   0.4682   0.7724
V649     V     0.5318   0.2724   0.7724
V650     V     0.5318   0.2276   0.7276
V651     V     0.4682   0.2276   0.7276
V652     V     0.4682   0.2724   0.7724
V653     V     0.2276   0.7276   0.5318
V654     V     0.2724   0.7724   0.5318
V655     V     0.2724   0.7724   0.4682
V656     V     0.2276   0.7276   0.4682
V657     V     0.5318   0.7724   0.2724
V658     V     0.5318   0.7276   0.2276
V659     V     0.4682   0.7724   0.2724
V660     V     0.4682   0.7276   0.2276
V661     V     0.7724   0.2724   0.5318
V662     V     0.7276   0.2276   0.5318
V663     V     0.7724   0.2724   0.4682
V664     V     0.7276   0.2276   0.4682
V665     V     0.7724   0.5318   0.2724
V666     V     0.7276   0.5318   0.2276
V667     V     0.7724   0.4682   0.2724
V668     V     0.7276   0.4682   0.2276
Er669     Er     0.5682   0.7356   0.6907
Er670     Er     0.5682   0.6907   0.7356
Er671     Er     0.7356   0.5682   0.6907
Er672     Er     0.6907   0.5682   0.7356
Er673     Er     0.7356   0.6907   0.5682
Er674     Er     0.6907   0.7356   0.5682
Er675     Er     0.5682   0.2644   0.3093
Er676     Er     0.5682   0.3093   0.2644
Er677     Er     0.2644   0.5682   0.3093
Er678     Er     0.3093   0.5682   0.2644
Er679     Er     0.2644   0.3093   0.5682
Er680     Er     0.3093   0.2644   0.5682
Er681     Er     0.7356   0.5682   0.3093
Er682     Er     0.6907   0.5682   0.2644
Er683     Er     0.5682   0.7356   0.3093
Er684     Er     0.5682   0.6907   0.2644
Er685     Er     0.5682   0.2644   0.6907
Er686     Er     0.5682   0.3093   0.7356
Er687     Er     0.7356   0.3093   0.5682
Er688     Er     0.6907   0.2644   0.5682
Er689     Er     0.2644   0.6907   0.5682
Er690     Er     0.3093   0.7356   0.5682
Er691     Er     0.2644   0.5682   0.6907
Er692     Er     0.3093   0.5682   0.7356
Er693     Er     0.7356   0.6907   0.4318
Er694     Er     0.6907   0.7356   0.4318
Er695     Er     0.4318   0.7356   0.6907
Er696     Er     0.4318   0.6907   0.7356
Er697     Er     0.4318   0.2644   0.3093
Er698     Er     0.4318   0.3093   0.2644
Er699     Er     0.2644   0.3093   0.4318
Er700     Er     0.3093   0.2644   0.4318
Er701     Er     0.2644   0.4318   0.3093
Er702     Er     0.3093   0.4318   0.2644
Er703     Er     0.7356   0.4318   0.6907
Er704     Er     0.6907   0.4318   0.7356
Er705     Er     0.7356   0.3093   0.4318
Er706     Er     0.6907   0.2644   0.4318
Er707     Er     0.2644   0.6907   0.4318
Er708     Er     0.3093   0.7356   0.4318
Er709     Er     0.4318   0.7356   0.3093
Er710     Er     0.4318   0.6907   0.2644
Er711     Er     0.7356   0.4318   0.3093
Er712     Er     0.6907   0.4318   0.2644
Er713     Er     0.4318   0.2644   0.6907
Er714     Er     0.4318   0.3093   0.7356
Er715     Er     0.2644   0.4318   0.6907
Er716     Er     0.3093   0.4318   0.7356
Ce717     Ce     0.5317   0.3011   0.346
Ce718     Ce     0.5317   0.346   0.3011
Ti719     Ti     0.6168   0.3382   0.2933
S720     S     0.5803   0.3748   0.33
Ti721     Ti     0.6168   0.2933   0.3382
S722     S     0.5803   0.33   0.3748
Ce723     Ce     0.6989   0.4683   0.346
Ce724     Ce     0.654   0.4683   0.3011
Ti725     Ti     0.6618   0.3832   0.2933
S726     S     0.6252   0.4197   0.33
Ti727     Ti     0.7067   0.3832   0.3382
S728     S     0.67   0.4197   0.3748
Ce729     Ce     0.6989   0.346   0.4683
Ce730     Ce     0.654   0.3011   0.4683
Ti731     Ti     0.6618   0.2933   0.3832
S732     S     0.6252   0.33   0.4197
Ti733     Ti     0.7067   0.3382   0.3832
S734     S     0.67   0.3748   0.4197
Ce735     Ce     0.4683   0.3011   0.346
Ce736     Ce     0.4683   0.346   0.3011
Ti737     Ti     0.3832   0.3382   0.2933
S738     S     0.4197   0.3748   0.33
Ti739     Ti     0.3832   0.2933   0.3382
S740     S     0.4197   0.33   0.3748
Ce741     Ce     0.3011   0.346   0.4683
Ce742     Ce     0.346   0.3011   0.4683
Ti743     Ti     0.3382   0.2933   0.3832
S744     S     0.3748   0.33   0.4197
Ti745     Ti     0.2933   0.3382   0.3832
S746     S     0.33   0.3748   0.4197
Ce747     Ce     0.3011   0.4683   0.346
Ce748     Ce     0.346   0.4683   0.3011
Ti749     Ti     0.3382   0.3832   0.2933
S750     S     0.3748   0.4197   0.33
Ti751     Ti     0.2933   0.3832   0.3382
S752     S     0.33   0.4197   0.3748
Ce753     Ce     0.6989   0.654   0.4683
Ce754     Ce     0.654   0.6989   0.4683
Ti755     Ti     0.6618   0.7067   0.3832
S756     S     0.6252   0.67   0.4197
Ti757     Ti     0.7067   0.6618   0.3832
S758     S     0.67   0.6252   0.4197
Ce759     Ce     0.6989   0.5317   0.346
Ce760     Ce     0.654   0.5317   0.3011
Ti761     Ti     0.6618   0.6168   0.2933
S762     S     0.6252   0.5803   0.33
Ti763     Ti     0.7067   0.6168   0.3382
S764     S     0.67   0.5803   0.3748
Ce765     Ce     0.5317   0.6989   0.346
Ce766     Ce     0.5317   0.654   0.3011
Ti767     Ti     0.6168   0.6618   0.2933
S768     S     0.5803   0.6252   0.33
Ti769     Ti     0.6168   0.7067   0.3382
S770     S     0.5803   0.67   0.3748
Ce771     Ce     0.3011   0.5317   0.346
Ce772     Ce     0.346   0.5317   0.3011
Ti773     Ti     0.3382   0.6168   0.2933
S774     S     0.3748   0.5803   0.33
Ti775     Ti     0.2933   0.6168   0.3382
S776     S     0.33   0.5803   0.3748
Ce777     Ce     0.4683   0.6989   0.346
Ce778     Ce     0.4683   0.654   0.3011
Ti779     Ti     0.3832   0.6618   0.2933
S780     S     0.4197   0.6252   0.33
Ti781     Ti     0.3832   0.7067   0.3382
S782     S     0.4197   0.67   0.3748
Ce783     Ce     0.346   0.6989   0.4683
Ce784     Ce     0.3011   0.654   0.4683
Ti785     Ti     0.2933   0.6618   0.3832
S786     S     0.33   0.6252   0.4197
Ti787     Ti     0.3382   0.7067   0.3832
S788     S     0.3748   0.67   0.4197
Ce789     Ce     0.6989   0.4683   0.654
Ce790     Ce     0.654   0.4683   0.6989
Ti791     Ti     0.6618   0.3832   0.7067
S792     S     0.6252   0.4197   0.67
Ti793     Ti     0.7067   0.3832   0.6618
S794     S     0.67   0.4197   0.6252
Ce795     Ce     0.6989   0.346   0.5317
Ce796     Ce     0.654   0.3011   0.5317
Ti797     Ti     0.6618   0.2933   0.6168
S798     S     0.6252   0.33   0.5803
Ti799     Ti     0.7067   0.3382   0.6168
S800     S     0.67   0.3748   0.5803
Ce801     Ce     0.5317   0.346   0.6989
Ce802     Ce     0.5317   0.3011   0.654
Ti803     Ti     0.6168   0.2933   0.6618
S804     S     0.5803   0.33   0.6252
Ti805     Ti     0.6168   0.3382   0.7067
S806     S     0.5803   0.3748   0.67
Ce807     Ce     0.6989   0.5317   0.654
Ce808     Ce     0.654   0.5317   0.6989
Ti809     Ti     0.6618   0.6168   0.7067
S810     S     0.6252   0.5803   0.67
Ti811     Ti     0.7067   0.6168   0.6618
S812     S     0.67   0.5803   0.6252
Ce813     Ce     0.6989   0.654   0.5317
Ce814     Ce     0.654   0.6989   0.5317
Ti815     Ti     0.7067   0.6618   0.6168
S816     S     0.67   0.6252   0.5803
Ti817     Ti     0.6618   0.7067   0.6168
S818     S     0.6252   0.67   0.5803
Ce819     Ce     0.5317   0.6989   0.654
Ce820     Ce     0.5317   0.654   0.6989
Ti821     Ti     0.6168   0.6618   0.7067
S822     S     0.5803   0.6252   0.67
Ti823     Ti     0.6168   0.7067   0.6618
S824     S     0.5803   0.67   0.6252
Ce825     Ce     0.3011   0.346   0.5317
Ce826     Ce     0.346   0.3011   0.5317
Ti827     Ti     0.3382   0.2933   0.6168
S828     S     0.3748   0.33   0.5803
Ti829     Ti     0.2933   0.3382   0.6168
S830     S     0.33   0.3748   0.5803
Ce831     Ce     0.4683   0.346   0.6989
Ce832     Ce     0.4683   0.3011   0.654
Ti833     Ti     0.3832   0.2933   0.6618
S834     S     0.4197   0.33   0.6252
Ti835     Ti     0.3832   0.3382   0.7067
S836     S     0.4197   0.3748   0.67
Ce837     Ce     0.346   0.4683   0.6989
Ce838     Ce     0.3011   0.4683   0.654
Ti839     Ti     0.2933   0.3832   0.6618
S840     S     0.33   0.4197   0.6252
Ti841     Ti     0.3382   0.3832   0.7067
S842     S     0.3748   0.4197   0.67
Ce843     Ce     0.4683   0.6989   0.654
Ce844     Ce     0.4683   0.654   0.6989
Ti845     Ti     0.3832   0.6618   0.7067
S846     S     0.4197   0.6252   0.67
Ti847     Ti     0.3832   0.7067   0.6618
S848     S     0.4197   0.67   0.6252
Ce849     Ce     0.346   0.6989   0.5317
Ce850     Ce     0.3011   0.654   0.5317
Ti851     Ti     0.2933   0.6618   0.6168
S852     S     0.33   0.6252   0.5803
Ti853     Ti     0.3382   0.7067   0.6168
S854     S     0.3748   0.67   0.5803
Ce855     Ce     0.346   0.5317   0.6989
Ce856     Ce     0.3011   0.5317   0.654
Ti857     Ti     0.2933   0.6168   0.6618
S858     S     0.33   0.5803   0.6252
Ti859     Ti     0.3382   0.6168   0.7067
S860     S     0.3748   0.5803   0.67
V861     V     0.2276   0.5318   0.7276
V862     V     0.2724   0.5318   0.7724
V863     V     0.2276   0.4682   0.7276
V864     V     0.2724   0.4682   0.7724
loop_
_geom_bond_atom_site_label_1
_geom_bond_atom_site_label_2
_geom_bond_distance
_geom_bond_site_symmetry_2
_ccdc_geom_bond_type
V1     V2    9.994   .     S
V1     V3    10.013   .     S
V1     Er235    10.013   .     S
V1     Er675    10.013   .     S
V2     V4    10.013   .     S
V2     Er236    10.013   .     S
V2     Er676    10.013   .     S
V3     V4    9.994   .     S
V3     Er251    10.013   .     S
V3     Er697    10.013   .     S
V4     Er252    10.013   .     S
V4     Er698    10.013   .     S
V5     V6    9.994   .     S
V5     V7    10.013   .     S
V5     Er31    10.013   .     S
V5     Er679    10.013   .     S
V6     V8    10.013   .     S
V6     Er32    10.013   .     S
V6     Er680    10.013   .     S
V7     V8    9.994   .     S
V7     Er47    10.013   .     S
V7     Er699    10.013   .     S
V8     Er48    10.013   .     S
V8     Er700    10.013   .     S
V9     V10    9.994   .     S
V9     V11    10.013   .     S
V9     Er443    10.013   .     S
V9     Er677    10.013   .     S
V10     V12    10.013   .     S
V10     Er444    10.013   .     S
V10     Er678    10.013   .     S
V11     V12    9.994   .     S
V11     Er461    10.013   .     S
V11     Er701    10.013   .     S
V12     Er462    10.013   .     S
V12     Er702    10.013   .     S
V13     V14    9.994   .     S
V13     V15    10.013   1_556     S
V13     Er259    10.013   .     S
V13     Er463    10.013   .     S
V14     V16    10.013   1_556     S
V14     Er260    10.013   .     S
V14     Er464    10.013   .     S
V15     V16    9.994   .     S
V15     V13    10.013   1_554     S
V15     Er241    10.013   .     S
V15     Er453    10.013   .     S
V16     V14    10.013   1_554     S
V16     Er242    10.013   .     S
V16     Er454    10.013   .     S
V17     V18    9.994   .     S
V17     V19    10.013   1_565     S
V17     Er53    10.013   .     S
V17     Er255    10.013   .     S
V18     V20    10.013   1_565     S
V18     Er54    10.013   .     S
V18     Er256    10.013   .     S
V19     V20    9.994   .     S
V19     V17    10.013   1_545     S
V19     Er41    10.013   .     S
V19     Er247    10.013   .     S
V20     V18    10.013   1_545     S
V20     Er42    10.013   .     S
V20     Er248    10.013   .     S
V21     V22    9.994   .     S
V21     V23    10.013   1_655     S
V21     Er49    10.013   .     S
V21     Er467    10.013   .     S
V22     V24    10.013   1_655     S
V22     Er50    10.013   .     S
V22     Er468    10.013   .     S
V23     V24    9.994   .     S
V23     V21    10.013   1_455     S
V23     Er43    10.013   .     S
V23     Er455    10.013   .     S
V24     V22    10.013   1_455     S
V24     Er44    10.013   .     S
V24     Er456    10.013   .     S
V25     V26    9.994   .     S
V25     V27    10.013   1_565     S
V25     Er69    10.013   .     S
V25     Er279    10.013   .     S
V26     V28    10.013   1_565     S
V26     Er70    10.013   .     S
V26     Er280    10.013   .     S
V27     V28    9.994   .     S
V27     V25    10.013   1_545     S
V27     Er57    10.013   .     S
V27     Er265    10.013   .     S
V28     V26    10.013   1_545     S
V28     Er58    10.013   .     S
V28     Er266    10.013   .     S
Er29     Er30    9.994   .     S
Er29     Ce113    9.997   .     S
Er29     Ti117    10.012   .     S
Er29     V641    10.013   .     S
Er30     Ce114    9.997   .     S
Er30     Ti115    10.012   .     S
Er30     V642    10.013   .     S
Er31     Er32    9.994   .     S
Er31     Ce95    9.997   .     S
Er31     Ti99    10.012   .     S
Er32     Ce96    9.997   .     S
Er32     Ti97    10.012   .     S
Er33     Er34    9.994   .     S
Er33     Ce138    9.997   .     S
Er33     Ti139    10.012   .     S
Er33     V654    10.013   .     S
Er34     Ce137    9.997   .     S
Er34     Ti141    10.012   .     S
Er34     V653    10.013   .     S
Er35     Er36    9.994   .     S
Er35     Ce84    9.997   .     S
Er35     Ti85    10.012   .     S
Er35     V661    10.013   .     S
Er36     Ce83    9.997   .     S
Er36     Ti87    10.012   .     S
Er36     V662    10.013   .     S
Er37     Er38    9.994   .     S
Er37     Ce77    9.997   .     S
Er37     Ti81    10.012   .     S
Er37     V227    10.013   .     S
Er38     Ce78    9.997   .     S
Er38     Ti79    10.012   .     S
Er38     V228    10.013   .     S
Er39     Er40    9.994   .     S
Er39     Ce131    9.997   .     S
Er39     Ti135    10.012   .     S
Er39     V435    10.013   .     S
Er40     Ce132    9.997   .     S
Er40     Ti133    10.012   .     S
Er40     V436    10.013   .     S
Er41     Er42    9.994   .     S
Er41     Ce215    9.997   .     S
Er41     Ti219    10.012   .     S
Er42     Ce216    9.997   .     S
Er42     Ti217    10.012   .     S
Er43     Er44    9.994   .     S
Er43     Ce203    9.997   .     S
Er43     Ti207    10.012   .     S
Er44     Ce204    9.997   .     S
Er44     Ti205    10.012   .     S
Er45     Er46    9.994   .     S
Er45     Ce149    9.997   .     S
Er45     Ti153    10.012   .     S
Er45     V643    10.013   .     S
Er46     Ce150    9.997   .     S
Er46     Ti151    10.012   .     S
Er46     V644    10.013   .     S
Er47     Er48    9.994   .     S
Er47     Ce209    9.997   .     S
Er47     Ti211    10.012   .     S
Er48     Ce210    9.997   .     S
Er48     Ti213    10.012   .     S
Er49     Er50    9.994   .     S
Er49     Ce167    9.997   .     S
Er49     Ti171    10.012   .     S
Er50     Ce168    9.997   .     S
Er50     Ti169    10.012   .     S
Er51     Er52    9.994   .     S
Er51     Ce119    9.997   .     S
Er51     Ti123    10.012   .     S
Er51     V433    10.013   .     S
Er52     Ce120    9.997   .     S
Er52     Ti121    10.012   .     S
Er52     V434    10.013   .     S
Er53     Er54    9.994   .     S
Er53     Ce185    9.997   .     S
Er53     Ti189    10.012   .     S
Er54     Ce186    9.997   .     S
Er54     Ti187    10.012   .     S
Er55     Er56    9.994   .     S
Er55     Ce125    9.997   .     S
Er55     Ti129    10.012   .     S
Er55     V225    10.013   .     S
Er56     Ce126    9.997   .     S
Er56     Ti127    10.012   .     S
Er56     V226    10.013   .     S
Er57     Er58    9.994   .     S
Er57     Ce107    9.997   .     S
Er57     Ti111    10.012   .     S
Er58     Ce108    9.997   .     S
Er58     Ti109    10.012   .     S
Er59     Er60    9.994   .     S
Er59     Ce101    9.997   .     S
Er59     Ti105    10.012   .     S
Er59     V223    10.013   .     S
Er60     Ce102    9.997   .     S
Er60     Ti103    10.012   .     S
Er60     V224    10.013   .     S
Er61     Er62    9.994   .     S
Er61     Ce191    9.997   .     S
Er61     Ti193    10.012   .     S
Er61     V635    10.013   .     S
Er62     Ce192    9.997   .     S
Er62     Ti195    10.012   .     S
Er62     V636    10.013   .     S
Er63     Er64    9.994   .     S
Er63     Ce173    9.997   .     S
Er63     Ti175    10.012   .     S
Er63     V427    10.013   .     S
Er64     Ce174    9.997   .     S
Er64     Ti177    10.012   .     S
Er64     V428    10.013   .     S
Er65     Er66    9.994   .     S
Er65     Ce198    9.997   .     S
Er65     Ti199    10.012   .     S
Er65     V655    10.013   .     S
Er66     Ce197    9.997   .     S
Er66     Ti201    10.012   .     S
Er66     V656    10.013   .     S
Er67     Er68    9.994   .     S
Er67     Ce180    9.997   .     S
Er67     Ti181    10.012   .     S
Er67     V663    10.013   .     S
Er68     Ce179    9.997   .     S
Er68     Ti183    10.012   .     S
Er68     V664    10.013   .     S
Er69     Er70    9.994   .     S
Er69     Ce143    9.997   .     S
Er69     Ti147    10.012   .     S
Er70     Ce144    9.997   .     S
Er70     Ti145    10.012   .     S
Er71     Er72    9.994   .     S
Er71     Ce89    9.997   .     S
Er71     Ti93    10.012   .     S
Er71     V221    10.013   .     S
Er72     Ce90    9.997   .     S
Er72     Ti91    10.012   .     S
Er72     V222    10.013   .     S
Er73     Er74    9.994   .     S
Er73     Ce161    9.997   .     S
Er73     Ti165    10.012   .     S
Er73     V425    10.013   .     S
Er74     Ce162    9.997   .     S
Er74     Ti163    10.012   .     S
Er74     V426    10.013   .     S
Er75     Er76    9.994   .     S
Er75     Ce155    9.997   .     S
Er75     Ti159    10.012   .     S
Er75     V633    10.013   .     S
Er76     Ce156    9.997   .     S
Er76     Ti157    10.012   .     S
Er76     V634    10.013   .     S
Ce77     Ce125    9.997   1_545     S
Ce77     Ce78    9.99   .     S
Ce77     S82    9.993   .     S
Ce78     Ce126    9.997   1_545     S
Ce78     S80    9.993   .     S
Ti79     Ti81    10.003   .     S
Ti79     Ti87    10.014   .     S
Ti79     S80    9.991   .     S
S80     S82    9.994   .     S
S80     S88    9.996   .     S
Ti81     Ti93    10.014   .     S
Ti81     S82    9.991   .     S
S82     S94    9.996   .     S
Ce83     Ce179    9.997   .     S
Ce83     Ce84    9.99   .     S
Ce83     S88    9.993   .     S
Ce84     Ce180    9.997   .     S
Ce84     S86    9.993   .     S
Ti85     Ti87    10.003   .     S
Ti85     Ti91    10.014   .     S
Ti85     S86    9.991   .     S
S86     S88    9.994   .     S
S86     S92    9.996   .     S
Ti87     S88    9.991   .     S
Ce89     Ce101    9.997   1_655     S
Ce89     Ce90    9.99   .     S
Ce89     S94    9.993   .     S
Ce90     Ce102    9.997   1_655     S
Ce90     S92    9.993   .     S
Ti91     Ti93    10.003   .     S
Ti91     S92    9.991   .     S
S92     S94    9.994   .     S
Ti93     S94    9.991   .     S
Ce95     Ce209    9.997   .     S
Ce95     Ce96    9.99   .     S
Ce95     S100    9.993   .     S
Ce96     Ce210    9.997   .     S
Ce96     S98    9.993   .     S
Ti97     Ti99    10.003   .     S
Ti97     Ti109    10.014   .     S
Ti97     S98    9.991   .     S
S98     S100    9.994   .     S
S98     S110    9.996   .     S
Ti99     Ti103    10.014   .     S
Ti99     S100    9.991   .     S
S100     S104    9.996   .     S
Ce101     Ce89    9.997   1_455     S
Ce101     Ce102    9.99   .     S
Ce101     S106    9.993   .     S
Ce102     Ce90    9.997   1_455     S
Ce102     S104    9.993   .     S
Ti103     Ti105    10.003   .     S
Ti103     S104    9.991   .     S
S104     S106    9.994   .     S
Ti105     Ti111    10.014   .     S
Ti105     S106    9.991   .     S
S106     S112    9.996   .     S
Ce107     Ce143    9.997   1_545     S
Ce107     Ce108    9.99   .     S
Ce107     S112    9.993   .     S
Ce108     Ce144    9.997   1_545     S
Ce108     S110    9.993   .     S
Ti109     Ti111    10.003   .     S
Ti109     S110    9.991   .     S
S110     S112    9.994   .     S
Ti111     S112    9.991   .     S
Ce113     Ce149    9.997   .     S
Ce113     Ce114    9.99   .     S
Ce113     S118    9.993   .     S
Ce114     Ce150    9.997   .     S
Ce114     S116    9.993   .     S
Ti115     Ti117    10.003   .     S
Ti115     Ti127    10.014   .     S
Ti115     S116    9.991   .     S
S116     S118    9.994   .     S
S116     S128    9.996   .     S
Ti117     Ti121    10.014   .     S
Ti117     S118    9.991   .     S
S118     S122    9.996   .     S
Ce119     Ce131    9.997   1_655     S
Ce119     Ce120    9.99   .     S
Ce119     S124    9.993   .     S
Ce120     Ce132    9.997   1_655     S
Ce120     S122    9.993   .     S
Ti121     Ti123    10.003   .     S
Ti121     S122    9.991   .     S
S122     S124    9.994   .     S
Ti123     Ti129    10.014   .     S
Ti123     S124    9.991   .     S
S124     S130    9.996   .     S
Ce125     Ce77    9.997   1_565     S
Ce125     Ce126    9.99   .     S
Ce125     S130    9.993   .     S
Ce126     Ce78    9.997   1_565     S
Ce126     S128    9.993   .     S
Ti127     Ti129    10.003   .     S
Ti127     S128    9.991   .     S
S128     S130    9.994   .     S
Ti129     S130    9.991   .     S
Ce131     Ce119    9.997   1_455     S
Ce131     Ce132    9.99   .     S
Ce131     S136    9.993   .     S
Ce132     Ce120    9.997   1_455     S
Ce132     S134    9.993   .     S
Ti133     Ti135    10.003   .     S
Ti133     Ti141    10.014   .     S
Ti133     S134    9.991   .     S
S134     S136    9.994   .     S
S134     S142    9.996   .     S
Ti135     Ti147    10.014   .     S
Ti135     S136    9.991   .     S
S136     S148    9.996   .     S
Ce137     Ce197    9.997   .     S
Ce137     Ce138    9.99   .     S
Ce137     S142    9.993   .     S
Ce138     Ce198    9.997   .     S
Ce138     S140    9.993   .     S
Ti139     Ti141    10.003   .     S
Ti139     Ti145    10.014   .     S
Ti139     S140    9.991   .     S
S140     S142    9.994   .     S
S140     S146    9.996   .     S
Ti141     S142    9.991   .     S
Ce143     Ce107    9.997   1_565     S
Ce143     Ce144    9.99   .     S
Ce143     S148    9.993   .     S
Ce144     Ce108    9.997   1_565     S
Ce144     S146    9.993   .     S
Ti145     Ti147    10.003   .     S
Ti145     S146    9.991   .     S
S146     S148    9.994   .     S
Ti147     S148    9.991   .     S
Ce149     Ce150    9.99   .     S
Ce149     S154    9.993   .     S
Ce150     S152    9.993   .     S
Ti151     Ti153    10.003   .     S
Ti151     Ti163    10.014   .     S
Ti151     S152    9.991   .     S
S152     S154    9.994   .     S
S152     S164    9.996   .     S
Ti153     Ti157    10.014   .     S
Ti153     S154    9.991   .     S
S154     S158    9.996   .     S
Ce155     Ce191    9.997   1_655     S
Ce155     Ce156    9.99   .     S
Ce155     S160    9.993   .     S
Ce156     Ce192    9.997   1_655     S
Ce156     S158    9.993   .     S
Ti157     Ti159    10.003   .     S
Ti157     S158    9.991   .     S
S158     S160    9.994   .     S
Ti159     Ti165    10.014   .     S
Ti159     S160    9.991   .     S
S160     S166    9.996   .     S
Ce161     Ce173    9.997   1_565     S
Ce161     Ce162    9.99   .     S
Ce161     S166    9.993   .     S
Ce162     Ce174    9.997   1_565     S
Ce162     S164    9.993   .     S
Ti163     Ti165    10.003   .     S
Ti163     S164    9.991   .     S
S164     S166    9.994   .     S
Ti165     S166    9.991   .     S
Ce167     Ce203    9.997   1_655     S
Ce167     Ce168    9.99   .     S
Ce167     S172    9.993   .     S
Ce168     Ce204    9.997   1_655     S
Ce168     S170    9.993   .     S
Ti169     Ti171    10.003   .     S
Ti169     Ti181    10.014   .     S
Ti169     S170    9.991   .     S
S170     S172    9.994   .     S
S170     S182    9.996   .     S
Ti171     Ti175    10.014   .     S
Ti171     S172    9.991   .     S
S172     S176    9.996   .     S
Ce173     Ce161    9.997   1_545     S
Ce173     Ce174    9.99   .     S
Ce173     S176    9.993   .     S
Ce174     Ce162    9.997   1_545     S
Ce174     S178    9.993   .     S
Ti175     Ti177    10.003   .     S
Ti175     S176    9.991   .     S
S176     S178    9.994   .     S
Ti177     Ti183    10.014   .     S
Ti177     S178    9.991   .     S
S178     S184    9.996   .     S
Ce179     Ce180    9.99   .     S
Ce179     S184    9.993   .     S
Ce180     S182    9.993   .     S
Ti181     Ti183    10.003   .     S
Ti181     S182    9.991   .     S
S182     S184    9.994   .     S
Ti183     S184    9.991   .     S
Ce185     Ce215    9.997   1_565     S
Ce185     Ce186    9.99   .     S
Ce185     S190    9.993   .     S
Ce186     Ce216    9.997   1_565     S
Ce186     S188    9.993   .     S
Ti187     Ti189    10.003   .     S
Ti187     Ti199    10.014   .     S
Ti187     S188    9.991   .     S
S188     S190    9.994   .     S
S188     S200    9.996   .     S
Ti189     Ti193    10.014   .     S
Ti189     S190    9.991   .     S
S190     S194    9.996   .     S
Ce191     Ce155    9.997   1_455     S
Ce191     Ce192    9.99   .     S
Ce191     S194    9.993   .     S
Ce192     Ce156    9.997   1_455     S
Ce192     S196    9.993   .     S
Ti193     Ti195    10.003   .     S
Ti193     S194    9.991   .     S
S194     S196    9.994   .     S
Ti195     Ti201    10.014   .     S
Ti195     S196    9.991   .     S
S196     S202    9.996   .     S
Ce197     Ce198    9.99   .     S
Ce197     S202    9.993   .     S
Ce198     S200    9.993   .     S
Ti199     Ti201    10.003   .     S
Ti199     S200    9.991   .     S
S200     S202    9.994   .     S
Ti201     S202    9.991   .     S
Ce203     Ce167    9.997   1_455     S
Ce203     Ce204    9.99   .     S
Ce203     S208    9.993   .     S
Ce204     Ce168    9.997   1_455     S
Ce204     S206    9.993   .     S
Ti205     Ti207    10.003   .     S
Ti205     Ti211    10.014   .     S
Ti205     S206    9.991   .     S
S206     S208    9.994   .     S
S206     S212    9.996   .     S
Ti207     Ti219    10.014   .     S
Ti207     S208    9.991   .     S
S208     S220    9.996   .     S
Ce209     Ce210    9.99   .     S
Ce209     S212    9.993   .     S
Ce210     S214    9.993   .     S
Ti211     Ti213    10.003   .     S
Ti211     S212    9.991   .     S
S212     S214    9.994   .     S
Ti213     Ti217    10.014   .     S
Ti213     S214    9.991   .     S
S214     S218    9.996   .     S
Ce215     Ce185    9.997   1_545     S
Ce215     Ce216    9.99   .     S
Ce215     S220    9.993   .     S
Ce216     Ce186    9.997   1_545     S
Ce216     S218    9.993   .     S
Ti217     Ti219    10.003   .     S
Ti217     S218    9.991   .     S
S218     S220    9.994   .     S
Ti219     S220    9.991   .     S
V221     V222    9.994   .     S
V221     V223    10.013   1_655     S
V221     Er487    10.013   .     S
V222     V224    10.013   1_655     S
V222     Er488    10.013   .     S
V223     V224    9.994   .     S
V223     V221    10.013   1_455     S
V223     Er475    10.013   .     S
V224     V222    10.013   1_455     S
V224     Er476    10.013   .     S
V225     V226    9.994   .     S
V225     V227    10.013   1_565     S
V225     Er257    10.013   .     S
V226     V228    10.013   1_565     S
V226     Er258    10.013   .     S
V227     V228    9.994   .     S
V227     V225    10.013   1_545     S
V227     Er245    10.013   .     S
V228     V226    10.013   1_545     S
V228     Er246    10.013   .     S
V229     V230    9.994   .     S
V229     V231    10.013   1_556     S
V229     Er269    10.013   .     S
V229     Er479    10.013   .     S
V230     V232    10.013   1_556     S
V230     Er270    10.013   .     S
V230     Er480    10.013   .     S
V231     V232    9.994   .     S
V231     V229    10.013   1_554     S
V231     Er261    10.013   .     S
V231     Er473    10.013   .     S
V232     V230    10.013   1_554     S
V232     Er262    10.013   .     S
V232     Er474    10.013   .     S
Er233     Er234    9.994   .     S
Er233     Ce317    9.997   .     S
Er233     Ti321    10.012   .     S
Er233     V637    10.013   .     S
Er234     Ce318    9.997   .     S
Er234     Ti319    10.012   .     S
Er234     V638    10.013   .     S
Er235     Er236    9.994   .     S
Er235     Ce299    9.997   .     S
Er235     Ti303    10.012   .     S
Er236     Ce300    9.997   .     S
Er236     Ti301    10.012   .     S
Er237     Er238    9.994   .     S
Er237     Ce342    9.997   .     S
Er237     Ti343    10.012   .     S
Er237     V649    10.013   .     S
Er238     Ce341    9.997   .     S
Er238     Ti345    10.012   .     S
Er238     V650    10.013   .     S
Er239     Er240    9.994   .     S
Er239     Ce288    9.997   .     S
Er239     Ti289    10.012   .     S
Er239     V657    10.013   .     S
Er240     Ce287    9.997   .     S
Er240     Ti291    10.012   .     S
Er240     V658    10.013   .     S
Er241     Er242    9.994   .     S
Er241     Ce419    9.997   .     S
Er241     Ti423    10.012   .     S
Er242     Ce420    9.997   .     S
Er242     Ti421    10.012   .     S
Er243     Er244    9.994   .     S
Er243     Ce281    9.997   .     S
Er243     Ti285    10.012   .     S
Er243     V431    10.013   .     S
Er244     Ce282    9.997   .     S
Er244     Ti283    10.012   .     S
Er244     V432    10.013   .     S
Er245     Er246    9.994   .     S
Er245     Ce335    9.997   .     S
Er245     Ti339    10.012   .     S
Er246     Ce336    9.997   .     S
Er246     Ti337    10.012   .     S
Er247     Er248    9.994   .     S
Er247     Ce407    9.997   .     S
Er247     Ti411    10.012   .     S
Er248     Ce408    9.997   .     S
Er248     Ti409    10.012   .     S
Er249     Er250    9.994   .     S
Er249     Ce329    9.997   .     S
Er249     Ti333    10.012   .     S
Er249     V429    10.013   .     S
Er250     Ce330    9.997   .     S
Er250     Ti331    10.012   .     S
Er250     V430    10.013   .     S
Er251     Er252    9.994   .     S
Er251     Ce413    9.997   .     S
Er251     Ti415    10.012   .     S
Er252     Ce414    9.997   .     S
Er252     Ti417    10.012   .     S
Er253     Er254    9.994   .     S
Er253     Ce353    9.997   .     S
Er253     Ti357    10.012   .     S
Er253     V639    10.013   .     S
Er254     Ce354    9.997   .     S
Er254     Ti355    10.012   .     S
Er254     V640    10.013   .     S
Er255     Er256    9.994   .     S
Er255     Ce371    9.997   .     S
Er255     Ti375    10.012   .     S
Er256     Ce372    9.997   .     S
Er256     Ti373    10.012   .     S
Er257     Er258    9.994   .     S
Er257     Ce323    9.997   .     S
Er257     Ti327    10.012   .     S
Er258     Ce324    9.997   .     S
Er258     Ti325    10.012   .     S
Er259     Er260    9.994   .     S
Er259     Ce389    9.997   .     S
Er259     Ti393    10.012   .     S
Er260     Ce390    9.997   .     S
Er260     Ti391    10.012   .     S
Er261     Er262    9.994   .     S
Er261     Ce311    9.997   .     S
Er261     Ti315    10.012   .     S
Er262     Ce312    9.997   .     S
Er262     Ti313    10.012   .     S
Er263     Er264    9.994   .     S
Er263     Ce305    9.997   .     S
Er263     Ti309    10.012   .     S
Er263     V427    10.013   .     S
Er264     Ce306    9.997   .     S
Er264     Ti307    10.012   .     S
Er264     V428    10.013   .     S
Er265     Er266    9.994   .     S
Er265     Ce395    9.997   .     S
Er265     Ti397    10.012   .     S
Er266     Ce396    9.997   .     S
Er266     Ti399    10.012   .     S
Er267     Er268    9.994   .     S
Er267     Ce377    9.997   .     S
Er267     Ti379    10.012   .     S
Er267     V439    10.013   .     S
Er268     Ce378    9.997   .     S
Er268     Ti381    10.012   .     S
Er268     V440    10.013   .     S
Er269     Er270    9.994   .     S
Er269     Ce347    9.997   .     S
Er269     Ti351    10.012   .     S
Er270     Ce348    9.997   .     S
Er270     Ti349    10.012   .     S
Er271     Er272    9.994   .     S
Er271     Ce359    9.997   .     S
Er271     Ti363    10.012   .     S
Er271     V437    10.013   .     S
Er272     Ce360    9.997   .     S
Er272     Ti361    10.012   .     S
Er272     V438    10.013   .     S
Er273     Er274    9.994   .     S
Er273     Ce402    9.997   .     S
Er273     Ti403    10.012   .     S
Er273     V652    10.013   .     S
Er274     Ce401    9.997   .     S
Er274     Ti405    10.012   .     S
Er274     V651    10.013   .     S
Er275     Er276    9.994   .     S
Er275     Ce293    9.997   .     S
Er275     Ti297    10.012   .     S
Er275     V425    10.013   .     S
Er276     Ce294    9.997   .     S
Er276     Ti295    10.012   .     S
Er276     V426    10.013   .     S
Er277     Er278    9.994   .     S
Er277     Ce384    9.997   .     S
Er277     Ti385    10.012   .     S
Er277     V659    10.013   .     S
Er278     Ce383    9.997   .     S
Er278     Ti387    10.012   .     S
Er278     V660    10.013   .     S
Er279     Er280    9.994   .     S
Er279     Ce365    9.997   .     S
Er279     Ti369    10.012   .     S
Er280     Ce366    9.997   .     S
Er280     Ti367    10.012   .     S
Ce281     Ce329    9.997   1_554     S
Ce281     Ce282    9.99   .     S
Ce281     S286    9.993   .     S
Ce282     Ce330    9.997   1_554     S
Ce282     S284    9.993   .     S
Ti283     Ti285    10.003   .     S
Ti283     Ti291    10.014   .     S
Ti283     S284    9.991   .     S
S284     S286    9.994   .     S
S284     S292    9.996   .     S
Ti285     Ti297    10.014   .     S
Ti285     S286    9.991   .     S
S286     S298    9.996   .     S
Ce287     Ce383    9.997   .     S
Ce287     Ce288    9.99   .     S
Ce287     S292    9.993   .     S
Ce288     Ce384    9.997   .     S
Ce288     S290    9.993   .     S
Ti289     Ti291    10.003   .     S
Ti289     Ti295    10.014   .     S
Ti289     S290    9.991   .     S
S290     S292    9.994   .     S
S290     S296    9.996   .     S
Ti291     S292    9.991   .     S
Ce293     Ce305    9.997   1_565     S
Ce293     Ce294    9.99   .     S
Ce293     S298    9.993   .     S
Ce294     Ce306    9.997   1_565     S
Ce294     S296    9.993   .     S
Ti295     Ti297    10.003   .     S
Ti295     S296    9.991   .     S
S296     S298    9.994   .     S
Ti297     S298    9.991   .     S
Ce299     Ce413    9.997   .     S
Ce299     Ce300    9.99   .     S
Ce299     S304    9.993   .     S
Ce300     Ce414    9.997   .     S
Ce300     S302    9.993   .     S
Ti301     Ti303    10.003   .     S
Ti301     Ti313    10.014   .     S
Ti301     S302    9.991   .     S
S302     S304    9.994   .     S
S302     S314    9.996   .     S
Ti303     Ti307    10.014   .     S
Ti303     S304    9.991   .     S
S304     S308    9.996   .     S
Ce305     Ce293    9.997   1_545     S
Ce305     Ce306    9.99   .     S
Ce305     S310    9.993   .     S
Ce306     Ce294    9.997   1_545     S
Ce306     S308    9.993   .     S
Ti307     Ti309    10.003   .     S
Ti307     S308    9.991   .     S
S308     S310    9.994   .     S
Ti309     Ti315    10.014   .     S
Ti309     S310    9.991   .     S
S310     S316    9.996   .     S
Ce311     Ce347    9.997   1_554     S
Ce311     Ce312    9.99   .     S
Ce311     S316    9.993   .     S
Ce312     Ce348    9.997   1_554     S
Ce312     S314    9.993   .     S
Ti313     Ti315    10.003   .     S
Ti313     S314    9.991   .     S
S314     S316    9.994   .     S
Ti315     S316    9.991   .     S
Ce317     Ce353    9.997   .     S
Ce317     Ce318    9.99   .     S
Ce317     S322    9.993   .     S
Ce318     Ce354    9.997   .     S
Ce318     S320    9.993   .     S
Ti319     Ti321    10.003   .     S
Ti319     Ti331    10.014   .     S
Ti319     S320    9.991   .     S
S320     S322    9.994   .     S
S320     S332    9.996   .     S
Ti321     Ti325    10.014   .     S
Ti321     S322    9.991   .     S
S322     S326    9.996   .     S
Ce323     Ce335    9.997   1_565     S
Ce323     Ce324    9.99   .     S
Ce323     S328    9.993   .     S
Ce324     Ce336    9.997   1_565     S
Ce324     S326    9.993   .     S
Ti325     Ti327    10.003   .     S
Ti325     S326    9.991   .     S
S326     S328    9.994   .     S
Ti327     Ti333    10.014   .     S
Ti327     S328    9.991   .     S
S328     S334    9.996   .     S
Ce329     Ce281    9.997   1_556     S
Ce329     Ce330    9.99   .     S
Ce329     S334    9.993   .     S
Ce330     Ce282    9.997   1_556     S
Ce330     S332    9.993   .     S
Ti331     Ti333    10.003   .     S
Ti331     S332    9.991   .     S
S332     S334    9.994   .     S
Ti333     S334    9.991   .     S
Ce335     Ce323    9.997   1_545     S
Ce335     Ce336    9.99   .     S
Ce335     S340    9.993   .     S
Ce336     Ce324    9.997   1_545     S
Ce336     S338    9.993   .     S
Ti337     Ti339    10.003   .     S
Ti337     Ti345    10.014   .     S
Ti337     S338    9.991   .     S
S338     S340    9.994   .     S
S338     S346    9.996   .     S
Ti339     Ti351    10.014   .     S
Ti339     S340    9.991   .     S
S340     S352    9.996   .     S
Ce341     Ce401    9.997   .     S
Ce341     Ce342    9.99   .     S
Ce341     S346    9.993   .     S
Ce342     Ce402    9.997   .     S
Ce342     S344    9.993   .     S
Ti343     Ti345    10.003   .     S
Ti343     Ti349    10.014   .     S
Ti343     S344    9.991   .     S
S344     S346    9.994   .     S
S344     S350    9.996   .     S
Ti345     S346    9.991   .     S
Ce347     Ce311    9.997   1_556     S
Ce347     Ce348    9.99   .     S
Ce347     S352    9.993   .     S
Ce348     Ce312    9.997   1_556     S
Ce348     S350    9.993   .     S
Ti349     Ti351    10.003   .     S
Ti349     S350    9.991   .     S
S350     S352    9.994   .     S
Ti351     S352    9.991   .     S
Ce353     Ce354    9.99   .     S
Ce353     S358    9.993   .     S
Ce354     S356    9.993   .     S
Ti355     Ti357    10.003   .     S
Ti355     Ti361    10.014   .     S
Ti355     S356    9.991   .     S
S356     S358    9.994   .     S
S356     S362    9.996   .     S
Ti357     Ti367    10.014   .     S
Ti357     S358    9.991   .     S
S358     S368    9.996   .     S
Ce359     Ce377    9.997   1_556     S
Ce359     Ce360    9.99   .     S
Ce359     S364    9.993   .     S
Ce360     Ce378    9.997   1_556     S
Ce360     S362    9.993   .     S
Ti361     Ti363    10.003   .     S
Ti361     S362    9.991   .     S
S362     S364    9.994   .     S
Ti363     Ti369    10.014   .     S
Ti363     S364    9.991   .     S
S364     S370    9.996   .     S
Ce365     Ce395    9.997   1_565     S
Ce365     Ce366    9.99   .     S
Ce365     S370    9.993   .     S
Ce366     Ce396    9.997   1_565     S
Ce366     S368    9.993   .     S
Ti367     Ti369    10.003   .     S
Ti367     S368    9.991   .     S
S368     S370    9.994   .     S
Ti369     S370    9.991   .     S
Ce371     Ce407    9.997   1_565     S
Ce371     Ce372    9.99   .     S
Ce371     S376    9.993   .     S
Ce372     Ce408    9.997   1_565     S
Ce372     S374    9.993   .     S
Ti373     Ti375    10.003   .     S
Ti373     Ti385    10.014   .     S
Ti373     S374    9.991   .     S
S374     S376    9.994   .     S
S374     S386    9.996   .     S
Ti375     Ti379    10.014   .     S
Ti375     S376    9.991   .     S
S376     S380    9.996   .     S
Ce377     Ce359    9.997   1_554     S
Ce377     Ce378    9.99   .     S
Ce377     S380    9.993   .     S
Ce378     Ce360    9.997   1_554     S
Ce378     S382    9.993   .     S
Ti379     Ti381    10.003   .     S
Ti379     S380    9.991   .     S
S380     S382    9.994   .     S
Ti381     Ti387    10.014   .     S
Ti381     S382    9.991   .     S
S382     S388    9.996   .     S
Ce383     Ce384    9.99   .     S
Ce383     S388    9.993   .     S
Ce384     S386    9.993   .     S
Ti385     Ti387    10.003   .     S
Ti385     S386    9.991   .     S
S386     S388    9.994   .     S
Ti387     S388    9.991   .     S
Ce389     Ce419    9.997   1_556     S
Ce389     Ce390    9.99   .     S
Ce389     S394    9.993   .     S
Ce390     Ce420    9.997   1_556     S
Ce390     S392    9.993   .     S
Ti391     Ti393    10.003   .     S
Ti391     Ti403    10.014   .     S
Ti391     S392    9.991   .     S
S392     S394    9.994   .     S
S392     S404    9.996   .     S
Ti393     Ti397    10.014   .     S
Ti393     S394    9.991   .     S
S394     S398    9.996   .     S
Ce395     Ce365    9.997   1_545     S
Ce395     Ce396    9.99   .     S
Ce395     S398    9.993   .     S
Ce396     Ce366    9.997   1_545     S
Ce396     S400    9.993   .     S
Ti397     Ti399    10.003   .     S
Ti397     S398    9.991   .     S
S398     S400    9.994   .     S
Ti399     Ti405    10.014   .     S
Ti399     S400    9.991   .     S
S400     S406    9.996   .     S
Ce401     Ce402    9.99   .     S
Ce401     S406    9.993   .     S
Ce402     S404    9.993   .     S
Ti403     Ti405    10.003   .     S
Ti403     S404    9.991   .     S
S404     S406    9.994   .     S
Ti405     S406    9.991   .     S
Ce407     Ce371    9.997   1_545     S
Ce407     Ce408    9.99   .     S
Ce407     S412    9.993   .     S
Ce408     Ce372    9.997   1_545     S
Ce408     S410    9.993   .     S
Ti409     Ti411    10.003   .     S
Ti409     Ti415    10.014   .     S
Ti409     S410    9.991   .     S
S410     S412    9.994   .     S
S410     S416    9.996   .     S
Ti411     Ti423    10.014   .     S
Ti411     S412    9.991   .     S
S412     S424    9.996   .     S
Ce413     Ce414    9.99   .     S
Ce413     S416    9.993   .     S
Ce414     S418    9.993   .     S
Ti415     Ti417    10.003   .     S
Ti415     S416    9.991   .     S
S416     S418    9.994   .     S
Ti417     Ti421    10.014   .     S
Ti417     S418    9.991   .     S
S418     S422    9.996   .     S
Ce419     Ce389    9.997   1_554     S
Ce419     Ce420    9.99   .     S
Ce419     S424    9.993   .     S
Ce420     Ce390    9.997   1_554     S
Ce420     S422    9.993   .     S
Ti421     Ti423    10.003   .     S
Ti421     S422    9.991   .     S
S422     S424    9.994   .     S
Ti423     S424    9.991   .     S
V425     V426    9.994   .     S
V425     V427    10.013   1_565     S
V426     V428    10.013   1_565     S
V427     V428    9.994   .     S
V427     V425    10.013   1_545     S
V428     V426    10.013   1_545     S
V429     V430    9.994   .     S
V429     V431    10.013   1_556     S
V429     Er457    10.013   .     S
V430     V432    10.013   1_556     S
V430     Er458    10.013   .     S
V431     V432    9.994   .     S
V431     V429    10.013   1_554     S
V431     Er451    10.013   .     S
V432     V430    10.013   1_554     S
V432     Er452    10.013   .     S
V433     V434    9.994   .     S
V433     V435    10.013   1_655     S
V433     Er465    10.013   .     S
V434     V436    10.013   1_655     S
V434     Er466    10.013   .     S
V435     V436    9.994   .     S
V435     V433    10.013   1_455     S
V435     Er449    10.013   .     S
V436     V434    10.013   1_455     S
V436     Er450    10.013   .     S
V437     V438    9.994   .     S
V437     V439    10.013   1_556     S
V437     Er477    10.013   .     S
V438     V440    10.013   1_556     S
V438     Er478    10.013   .     S
V439     V440    9.994   .     S
V439     V437    10.013   1_554     S
V439     Er469    10.013   .     S
V440     V438    10.013   1_554     S
V440     Er470    10.013   .     S
Er441     Er442    9.994   .     S
Er441     Ce609    9.997   .     S
Er441     Ti613    10.012   .     S
Er441     V645    10.013   .     S
Er442     Ce610    9.997   .     S
Er442     Ti611    10.012   .     S
Er442     V646    10.013   .     S
Er443     Er444    9.994   .     S
Er443     Ce579    9.997   .     S
Er443     Ti583    10.012   .     S
Er444     Ce580    9.997   .     S
Er444     Ti581    10.012   .     S
Er445     Er446    9.994   .     S
Er445     Ce568    9.997   .     S
Er445     Ti569    10.012   .     S
Er445     V862    10.013   .     S
Er446     Ce567    9.997   .     S
Er446     Ti571    10.012   .     S
Er446     V861    10.013   .     S
Er447     Er448    9.994   .     S
Er447     Ce622    9.997   .     S
Er447     Ti623    10.012   .     S
Er447     V665    10.013   .     S
Er448     Ce621    9.997   .     S
Er448     Ti625    10.012   .     S
Er448     V666    10.013   .     S
Er449     Er450    9.994   .     S
Er449     Ce561    9.997   .     S
Er449     Ti565    10.012   .     S
Er450     Ce562    9.997   .     S
Er450     Ti563    10.012   .     S
Er451     Er452    9.994   .     S
Er451     Ce615    9.997   .     S
Er451     Ti619    10.012   .     S
Er452     Ce616    9.997   .     S
Er452     Ti617    10.012   .     S
Er453     Er454    9.994   .     S
Er453     Ce543    9.997   .     S
Er453     Ti547    10.012   .     S
Er454     Ce544    9.997   .     S
Er454     Ti545    10.012   .     S
Er455     Er456    9.994   .     S
Er455     Ce555    9.997   .     S
Er455     Ti559    10.012   .     S
Er456     Ce556    9.997   .     S
Er456     Ti557    10.012   .     S
Er457     Er458    9.994   .     S
Er457     Ce597    9.997   .     S
Er457     Ti601    10.012   .     S
Er458     Ce598    9.997   .     S
Er458     Ti599    10.012   .     S
Er459     Er460    9.994   .     S
Er459     Ce489    9.997   .     S
Er459     Ti493    10.012   .     S
Er459     V647    10.013   .     S
Er460     Ce490    9.997   .     S
Er460     Ti491    10.012   .     S
Er460     V648    10.013   .     S
Er461     Er462    9.994   .     S
Er461     Ce549    9.997   .     S
Er461     Ti553    10.012   .     S
Er462     Ce550    9.997   .     S
Er462     Ti551    10.012   .     S
Er463     Er464    9.994   .     S
Er463     Ce507    9.997   .     S
Er463     Ti511    10.012   .     S
Er464     Ce508    9.997   .     S
Er464     Ti509    10.012   .     S
Er465     Er466    9.994   .     S
Er465     Ce603    9.997   .     S
Er465     Ti607    10.012   .     S
Er466     Ce604    9.997   .     S
Er466     Ti605    10.012   .     S
Er467     Er468    9.994   .     S
Er467     Ce525    9.997   .     S
Er467     Ti529    10.012   .     S
Er468     Ce526    9.997   .     S
Er468     Ti527    10.012   .     S
Er469     Er470    9.994   .     S
Er469     Ce585    9.997   .     S
Er469     Ti589    10.012   .     S
Er470     Ce586    9.997   .     S
Er470     Ti587    10.012   .     S
Er471     Er472    9.994   .     S
Er471     Ce591    9.997   .     S
Er471     Ti595    10.012   .     S
Er471     V635    10.013   .     S
Er472     Ce592    9.997   .     S
Er472     Ti593    10.012   .     S
Er472     V636    10.013   .     S
Er473     Er474    9.994   .     S
Er473     Ce531    9.997   .     S
Er473     Ti533    10.012   .     S
Er474     Ce532    9.997   .     S
Er474     Ti535    10.012   .     S
Er475     Er476    9.994   .     S
Er475     Ce513    9.997   .     S
Er475     Ti515    10.012   .     S
Er476     Ce514    9.997   .     S
Er476     Ti517    10.012   .     S
Er477     Er478    9.994   .     S
Er477     Ce573    9.997   .     S
Er477     Ti577    10.012   .     S
Er478     Ce574    9.997   .     S
Er478     Ti575    10.012   .     S
Er479     Er480    9.994   .     S
Er479     Ce495    9.997   .     S
Er479     Ti499    10.012   .     S
Er480     Ce496    9.997   .     S
Er480     Ti497    10.012   .     S
Er481     Er482    9.994   .     S
Er481     Ce520    9.997   .     S
Er481     Ti521    10.012   .     S
Er481     V864    10.013   .     S
Er482     Ce519    9.997   .     S
Er482     Ti523    10.012   .     S
Er482     V863    10.013   .     S
Er483     Er484    9.994   .     S
Er483     Ce538    9.997   .     S
Er483     Ti539    10.012   .     S
Er483     V667    10.013   .     S
Er484     Ce537    9.997   .     S
Er484     Ti541    10.012   .     S
Er484     V668    10.013   .     S
Er485     Er486    9.994   .     S
Er485     Ce627    9.997   .     S
Er485     Ti631    10.012   .     S
Er485     V633    10.013   .     S
Er486     Ce628    9.997   .     S
Er486     Ti629    10.012   .     S
Er486     V634    10.013   .     S
Er487     Er488    9.994   .     S
Er487     Ce501    9.997   .     S
Er487     Ti505    10.012   .     S
Er488     Ce502    9.997   .     S
Er488     Ti503    10.012   .     S
Ce489     Ce609    9.997   .     S
Ce489     Ce490    9.99   .     S
Ce489     S494    9.993   .     S
Ce490     Ce610    9.997   .     S
Ce490     S492    9.993   .     S
Ti491     Ti493    10.003   .     S
Ti491     Ti497    10.014   .     S
Ti491     S492    9.991   .     S
S492     S494    9.994   .     S
S492     S498    9.996   .     S
Ti493     Ti503    10.014   .     S
Ti493     S494    9.991   .     S
S494     S504    9.996   .     S
Ce495     Ce531    9.997   1_556     S
Ce495     Ce496    9.99   .     S
Ce495     S500    9.993   .     S
Ce496     Ce532    9.997   1_556     S
Ce496     S498    9.993   .     S
Ti497     Ti499    10.003   .     S
Ti497     S498    9.991   .     S
S498     S500    9.994   .     S
Ti499     Ti505    10.014   .     S
Ti499     S500    9.991   .     S
S500     S506    9.996   .     S
Ce501     Ce513    9.997   1_655     S
Ce501     Ce502    9.99   .     S
Ce501     S506    9.993   .     S
Ce502     Ce514    9.997   1_655     S
Ce502     S504    9.993   .     S
Ti503     Ti505    10.003   .     S
Ti503     S504    9.991   .     S
S504     S506    9.994   .     S
Ti505     S506    9.991   .     S
Ce507     Ce543    9.997   1_556     S
Ce507     Ce508    9.99   .     S
Ce507     S512    9.993   .     S
Ce508     Ce544    9.997   1_556     S
Ce508     S510    9.993   .     S
Ti509     Ti511    10.003   .     S
Ti509     Ti521    10.014   .     S
Ti509     S510    9.991   .     S
S510     S512    9.994   .     S
S510     S522    9.996   .     S
Ti511     Ti515    10.014   .     S
Ti511     S512    9.991   .     S
S512     S516    9.996   .     S
Ce513     Ce501    9.997   1_455     S
Ce513     Ce514    9.99   .     S
Ce513     S516    9.993   .     S
Ce514     Ce502    9.997   1_455     S
Ce514     S518    9.993   .     S
Ti515     Ti517    10.003   .     S
Ti515     S516    9.991   .     S
S516     S518    9.994   .     S
Ti517     Ti523    10.014   .     S
Ti517     S518    9.991   .     S
S518     S524    9.996   .     S
Ce519     Ce567    9.997   .     S
Ce519     Ce520    9.99   .     S
Ce519     S524    9.993   .     S
Ce520     Ce568    9.997   .     S
Ce520     S522    9.993   .     S
Ti521     Ti523    10.003   .     S
Ti521     S522    9.991   .     S
S522     S524    9.994   .     S
Ti523     S524    9.991   .     S
Ce525     Ce555    9.997   1_655     S
Ce525     Ce526    9.99   .     S
Ce525     S530    9.993   .     S
Ce526     Ce556    9.997   1_655     S
Ce526     S528    9.993   .     S
Ti527     Ti529    10.003   .     S
Ti527     Ti539    10.014   .     S
Ti527     S528    9.991   .     S
S528     S530    9.994   .     S
S528     S540    9.996   .     S
Ti529     Ti533    10.014   .     S
Ti529     S530    9.991   .     S
S530     S534    9.996   .     S
Ce531     Ce495    9.997   1_554     S
Ce531     Ce532    9.99   .     S
Ce531     S534    9.993   .     S
Ce532     Ce496    9.997   1_554     S
Ce532     S536    9.993   .     S
Ti533     Ti535    10.003   .     S
Ti533     S534    9.991   .     S
S534     S536    9.994   .     S
Ti535     Ti541    10.014   .     S
Ti535     S536    9.991   .     S
S536     S542    9.996   .     S
Ce537     Ce621    9.997   .     S
Ce537     Ce538    9.99   .     S
Ce537     S542    9.993   .     S
Ce538     Ce622    9.997   .     S
Ce538     S540    9.993   .     S
Ti539     Ti541    10.003   .     S
Ti539     S540    9.991   .     S
S540     S542    9.994   .     S
Ti541     S542    9.991   .     S
Ce543     Ce507    9.997   1_554     S
Ce543     Ce544    9.99   .     S
Ce543     S548    9.993   .     S
Ce544     Ce508    9.997   1_554     S
Ce544     S546    9.993   .     S
Ti545     Ti547    10.003   .     S
Ti545     Ti551    10.014   .     S
Ti545     S546    9.991   .     S
S546     S548    9.994   .     S
S546     S552    9.996   .     S
Ti547     Ti559    10.014   .     S
Ti547     S548    9.991   .     S
S548     S560    9.996   .     S
Ce549     Ce579    9.997   .     S
Ce549     Ce550    9.99   .     S
Ce549     S554    9.993   .     S
Ce550     Ce580    9.997   .     S
Ce550     S552    9.993   .     S
Ti551     Ti553    10.003   .     S
Ti551     S552    9.991   .     S
S552     S554    9.994   .     S
Ti553     Ti557    10.014   .     S
Ti553     S554    9.991   .     S
S554     S558    9.996   .     S
Ce555     Ce525    9.997   1_455     S
Ce555     Ce556    9.99   .     S
Ce555     S560    9.993   .     S
Ce556     Ce526    9.997   1_455     S
Ce556     S558    9.993   .     S
Ti557     Ti559    10.003   .     S
Ti557     S558    9.991   .     S
S558     S560    9.994   .     S
Ti559     S560    9.991   .     S
Ce561     Ce603    9.997   1_455     S
Ce561     Ce562    9.99   .     S
Ce561     S566    9.993   .     S
Ce562     Ce604    9.997   1_455     S
Ce562     S564    9.993   .     S
Ti563     Ti565    10.003   .     S
Ti563     Ti571    10.014   .     S
Ti563     S564    9.991   .     S
S564     S566    9.994   .     S
S564     S572    9.996   .     S
Ti565     Ti577    10.014   .     S
Ti565     S566    9.991   .     S
S566     S578    9.996   .     S
Ce567     Ce568    9.99   .     S
Ce567     S572    9.993   .     S
Ce568     S570    9.993   .     S
Ti569     Ti571    10.003   .     S
Ti569     Ti575    10.014   .     S
Ti569     S570    9.991   .     S
S570     S572    9.994   .     S
S570     S576    9.996   .     S
Ti571     S572    9.991   .     S
Ce573     Ce585    9.997   1_556     S
Ce573     Ce574    9.99   .     S
Ce573     S578    9.993   .     S
Ce574     Ce586    9.997   1_556     S
Ce574     S576    9.993   .     S
Ti575     Ti577    10.003   .     S
Ti575     S576    9.991   .     S
S576     S578    9.994   .     S
Ti577     S578    9.991   .     S
Ce579     Ce580    9.99   .     S
Ce579     S584    9.993   .     S
Ce580     S582    9.993   .     S
Ti581     Ti583    10.003   .     S
Ti581     Ti587    10.014   .     S
Ti581     S582    9.991   .     S
S582     S584    9.994   .     S
S582     S588    9.996   .     S
Ti583     Ti593    10.014   .     S
Ti583     S584    9.991   .     S
S584     S594    9.996   .     S
Ce585     Ce573    9.997   1_554     S
Ce585     Ce586    9.99   .     S
Ce585     S590    9.993   .     S
Ce586     Ce574    9.997   1_554     S
Ce586     S588    9.993   .     S
Ti587     Ti589    10.003   .     S
Ti587     S588    9.991   .     S
S588     S590    9.994   .     S
Ti589     Ti595    10.014   .     S
Ti589     S590    9.991   .     S
S590     S596    9.996   .     S
Ce591     Ce627    9.997   1_455     S
Ce591     Ce592    9.99   .     S
Ce591     S596    9.993   .     S
Ce592     Ce628    9.997   1_455     S
Ce592     S594    9.993   .     S
Ti593     Ti595    10.003   .     S
Ti593     S594    9.991   .     S
S594     S596    9.994   .     S
Ti595     S596    9.991   .     S
Ce597     Ce615    9.997   1_556     S
Ce597     Ce598    9.99   .     S
Ce597     S602    9.993   .     S
Ce598     Ce616    9.997   1_556     S
Ce598     S600    9.993   .     S
Ti599     Ti601    10.003   .     S
Ti599     Ti611    10.014   .     S
Ti599     S600    9.991   .     S
S600     S602    9.994   .     S
S600     S612    9.996   .     S
Ti601     Ti607    10.014   .     S
Ti601     S602    9.991   .     S
S602     S608    9.996   .     S
Ce603     Ce561    9.997   1_655     S
Ce603     Ce604    9.99   .     S
Ce603     S608    9.993   .     S
Ce604     Ce562    9.997   1_655     S
Ce604     S606    9.993   .     S
Ti605     Ti607    10.003   .     S
Ti605     Ti613    10.014   .     S
Ti605     S606    9.991   .     S
S606     S608    9.994   .     S
S606     S614    9.996   .     S
Ti607     S608    9.991   .     S
Ce609     Ce610    9.99   .     S
Ce609     S614    9.993   .     S
Ce610     S612    9.993   .     S
Ti611     Ti613    10.003   .     S
Ti611     S612    9.991   .     S
S612     S614    9.994   .     S
Ti613     S614    9.991   .     S
Ce615     Ce597    9.997   1_554     S
Ce615     Ce616    9.99   .     S
Ce615     S620    9.993   .     S
Ce616     Ce598    9.997   1_554     S
Ce616     S618    9.993   .     S
Ti617     Ti619    10.003   .     S
Ti617     Ti625    10.014   .     S
Ti617     S618    9.991   .     S
S618     S620    9.994   .     S
S618     S626    9.996   .     S
Ti619     Ti631    10.014   .     S
Ti619     S620    9.991   .     S
S620     S632    9.996   .     S
Ce621     Ce622    9.99   .     S
Ce621     S626    9.993   .     S
Ce622     S624    9.993   .     S
Ti623     Ti625    10.003   .     S
Ti623     Ti629    10.014   .     S
Ti623     S624    9.991   .     S
S624     S626    9.994   .     S
S624     S630    9.996   .     S
Ti625     S626    9.991   .     S
Ce627     Ce591    9.997   1_655     S
Ce627     Ce628    9.99   .     S
Ce627     S632    9.993   .     S
Ce628     Ce592    9.997   1_655     S
Ce628     S630    9.993   .     S
Ti629     Ti631    10.003   .     S
Ti629     S630    9.991   .     S
S630     S632    9.994   .     S
Ti631     S632    9.991   .     S
V633     V634    9.994   .     S
V633     V635    10.013   1_655     S
V634     V636    10.013   1_655     S
V635     V636    9.994   .     S
V635     V633    10.013   1_455     S
V636     V634    10.013   1_455     S
V637     V638    9.994   .     S
V637     V639    10.013   .     S
V637     Er669    10.013   .     S
V638     V640    10.013   .     S
V638     Er670    10.013   .     S
V639     V640    9.994   .     S
V639     Er695    10.013   .     S
V640     Er696    10.013   .     S
V641     V642    9.994   .     S
V641     V643    10.013   .     S
V641     Er673    10.013   .     S
V642     V644    10.013   .     S
V642     Er674    10.013   .     S
V643     V644    9.994   .     S
V643     Er693    10.013   .     S
V644     Er694    10.013   .     S
V645     V646    9.994   .     S
V645     V647    10.013   .     S
V645     Er671    10.013   .     S
V646     V648    10.013   .     S
V646     Er672    10.013   .     S
V647     V648    9.994   .     S
V647     Er703    10.013   .     S
V648     Er704    10.013   .     S
V649     V650    9.994   .     S
V649     V652    10.013   .     S
V649     Er686    10.013   .     S
V650     V651    10.013   .     S
V650     Er685    10.013   .     S
V651     V652    9.994   .     S
V651     Er713    10.013   .     S
V652     Er714    10.013   .     S
V653     V654    9.994   .     S
V653     V656    10.013   .     S
V653     Er689    10.013   .     S
V654     V655    10.013   .     S
V654     Er690    10.013   .     S
V655     V656    9.994   .     S
V655     Er708    10.013   .     S
V656     Er707    10.013   .     S
V657     V658    9.994   .     S
V657     V659    10.013   .     S
V657     Er683    10.013   .     S
V658     V660    10.013   .     S
V658     Er684    10.013   .     S
V659     V660    9.994   .     S
V659     Er709    10.013   .     S
V660     Er710    10.013   .     S
V661     V662    9.994   .     S
V661     V663    10.013   .     S
V661     Er687    10.013   .     S
V662     V664    10.013   .     S
V662     Er688    10.013   .     S
V663     V664    9.994   .     S
V663     Er705    10.013   .     S
V664     Er706    10.013   .     S
V665     V666    9.994   .     S
V665     V667    10.013   .     S
V665     Er681    10.013   .     S
V666     V668    10.013   .     S
V666     Er682    10.013   .     S
V667     V668    9.994   .     S
V667     Er711    10.013   .     S
V668     Er712    10.013   .     S
Er669     Er670    9.994   .     S
Er669     Ce819    9.997   .     S
Er669     Ti823    10.012   .     S
Er670     Ce820    9.997   .     S
Er670     Ti821    10.012   .     S
Er671     Er672    9.994   .     S
Er671     Ce807    9.997   .     S
Er671     Ti811    10.012   .     S
Er672     Ce808    9.997   .     S
Er672     Ti809    10.012   .     S
Er673     Er674    9.994   .     S
Er673     Ce813    9.997   .     S
Er673     Ti815    10.012   .     S
Er674     Ce814    9.997   .     S
Er674     Ti817    10.012   .     S
Er675     Er676    9.994   .     S
Er675     Ce717    9.997   .     S
Er675     Ti721    10.012   .     S
Er676     Ce718    9.997   .     S
Er676     Ti719    10.012   .     S
Er677     Er678    9.994   .     S
Er677     Ce771    9.997   .     S
Er677     Ti775    10.012   .     S
Er678     Ce772    9.997   .     S
Er678     Ti773    10.012   .     S
Er679     Er680    9.994   .     S
Er679     Ce825    9.997   .     S
Er679     Ti829    10.012   .     S
Er680     Ce826    9.997   .     S
Er680     Ti827    10.012   .     S
Er681     Er682    9.994   .     S
Er681     Ce759    9.997   .     S
Er681     Ti763    10.012   .     S
Er682     Ce760    9.997   .     S
Er682     Ti761    10.012   .     S
Er683     Er684    9.994   .     S
Er683     Ce765    9.997   .     S
Er683     Ti769    10.012   .     S
Er684     Ce766    9.997   .     S
Er684     Ti767    10.012   .     S
Er685     Er686    9.994   .     S
Er685     Ce802    9.997   .     S
Er685     Ti803    10.012   .     S
Er686     Ce801    9.997   .     S
Er686     Ti805    10.012   .     S
Er687     Er688    9.994   .     S
Er687     Ce795    9.997   .     S
Er687     Ti799    10.012   .     S
Er688     Ce796    9.997   .     S
Er688     Ti797    10.012   .     S
Er689     Er690    9.994   .     S
Er689     Ce850    9.997   .     S
Er689     Ti851    10.012   .     S
Er690     Ce849    9.997   .     S
Er690     Ti853    10.012   .     S
Er691     Er692    9.994   .     S
Er691     Ce856    9.997   .     S
Er691     Ti857    10.012   .     S
Er691     V861    10.013   .     S
Er692     Ce855    9.997   .     S
Er692     Ti859    10.012   .     S
Er692     V862    10.013   .     S
Er693     Er694    9.994   .     S
Er693     Ce753    9.997   .     S
Er693     Ti757    10.012   .     S
Er694     Ce754    9.997   .     S
Er694     Ti755    10.012   .     S
Er695     Er696    9.994   .     S
Er695     Ce843    9.997   .     S
Er695     Ti847    10.012   .     S
Er696     Ce844    9.997   .     S
Er696     Ti845    10.012   .     S
Er697     Er698    9.994   .     S
Er697     Ce735    9.997   .     S
Er697     Ti739    10.012   .     S
Er698     Ce736    9.997   .     S
Er698     Ti737    10.012   .     S
Er699     Er700    9.994   .     S
Er699     Ce741    9.997   .     S
Er699     Ti745    10.012   .     S
Er700     Ce742    9.997   .     S
Er700     Ti743    10.012   .     S
Er701     Er702    9.994   .     S
Er701     Ce747    9.997   .     S
Er701     Ti751    10.012   .     S
Er702     Ce748    9.997   .     S
Er702     Ti749    10.012   .     S
Er703     Er704    9.994   .     S
Er703     Ce789    9.997   .     S
Er703     Ti793    10.012   .     S
Er704     Ce790    9.997   .     S
Er704     Ti791    10.012   .     S
Er705     Er706    9.994   .     S
Er705     Ce729    9.997   .     S
Er705     Ti733    10.012   .     S
Er706     Ce730    9.997   .     S
Er706     Ti731    10.012   .     S
Er707     Er708    9.994   .     S
Er707     Ce784    9.997   .     S
Er707     Ti785    10.012   .     S
Er708     Ce783    9.997   .     S
Er708     Ti787    10.012   .     S
Er709     Er710    9.994   .     S
Er709     Ce777    9.997   .     S
Er709     Ti781    10.012   .     S
Er710     Ce778    9.997   .     S
Er710     Ti779    10.012   .     S
Er711     Er712    9.994   .     S
Er711     Ce723    9.997   .     S
Er711     Ti727    10.012   .     S
Er712     Ce724    9.997   .     S
Er712     Ti725    10.012   .     S
Er713     Er714    9.994   .     S
Er713     Ce832    9.997   .     S
Er713     Ti833    10.012   .     S
Er714     Ce831    9.997   .     S
Er714     Ti835    10.012   .     S
Er715     Er716    9.994   .     S
Er715     Ce838    9.997   .     S
Er715     Ti839    10.012   .     S
Er715     V863    10.013   .     S
Er716     Ce837    9.997   .     S
Er716     Ti841    10.012   .     S
Er716     V864    10.013   .     S
Ce717     Ce735    9.997   .     S
Ce717     Ce718    9.99   .     S
Ce717     S722    9.993   .     S
Ce718     Ce736    9.997   .     S
Ce718     S720    9.993   .     S
Ti719     Ti721    10.003   .     S
Ti719     Ti725    10.014   .     S
Ti719     S720    9.991   .     S
S720     S722    9.994   .     S
S720     S726    9.996   .     S
Ti721     Ti731    10.014   .     S
Ti721     S722    9.991   .     S
S722     S732    9.996   .     S
Ce723     Ce759    9.997   .     S
Ce723     Ce724    9.99   .     S
Ce723     S728    9.993   .     S
Ce724     Ce760    9.997   .     S
Ce724     S726    9.993   .     S
Ti725     Ti727    10.003   .     S
Ti725     S726    9.991   .     S
S726     S728    9.994   .     S
Ti727     Ti733    10.014   .     S
Ti727     S728    9.991   .     S
S728     S734    9.996   .     S
Ce729     Ce795    9.997   .     S
Ce729     Ce730    9.99   .     S
Ce729     S734    9.993   .     S
Ce730     Ce796    9.997   .     S
Ce730     S732    9.993   .     S
Ti731     Ti733    10.003   .     S
Ti731     S732    9.991   .     S
S732     S734    9.994   .     S
Ti733     S734    9.991   .     S
Ce735     Ce736    9.99   .     S
Ce735     S740    9.993   .     S
Ce736     S738    9.993   .     S
Ti737     Ti739    10.003   .     S
Ti737     Ti749    10.014   .     S
Ti737     S738    9.991   .     S
S738     S740    9.994   .     S
S738     S750    9.996   .     S
Ti739     Ti743    10.014   .     S
Ti739     S740    9.991   .     S
S740     S744    9.996   .     S
Ce741     Ce825    9.997   .     S
Ce741     Ce742    9.99   .     S
Ce741     S746    9.993   .     S
Ce742     Ce826    9.997   .     S
Ce742     S744    9.993   .     S
Ti743     Ti745    10.003   .     S
Ti743     S744    9.991   .     S
S744     S746    9.994   .     S
Ti745     Ti751    10.014   .     S
Ti745     S746    9.991   .     S
S746     S752    9.996   .     S
Ce747     Ce771    9.997   .     S
Ce747     Ce748    9.99   .     S
Ce747     S752    9.993   .     S
Ce748     Ce772    9.997   .     S
Ce748     S750    9.993   .     S
Ti749     Ti751    10.003   .     S
Ti749     S750    9.991   .     S
S750     S752    9.994   .     S
Ti751     S752    9.991   .     S
Ce753     Ce813    9.997   .     S
Ce753     Ce754    9.99   .     S
Ce753     S758    9.993   .     S
Ce754     Ce814    9.997   .     S
Ce754     S756    9.993   .     S
Ti755     Ti757    10.003   .     S
Ti755     Ti769    10.014   .     S
Ti755     S756    9.991   .     S
S756     S758    9.994   .     S
S756     S770    9.996   .     S
Ti757     Ti763    10.014   .     S
Ti757     S758    9.991   .     S
S758     S764    9.996   .     S
Ce759     Ce760    9.99   .     S
Ce759     S764    9.993   .     S
Ce760     S762    9.993   .     S
Ti761     Ti763    10.003   .     S
Ti761     Ti767    10.014   .     S
Ti761     S762    9.991   .     S
S762     S764    9.994   .     S
S762     S768    9.996   .     S
Ti763     S764    9.991   .     S
Ce765     Ce777    9.997   .     S
Ce765     Ce766    9.99   .     S
Ce765     S770    9.993   .     S
Ce766     Ce778    9.997   .     S
Ce766     S768    9.993   .     S
Ti767     Ti769    10.003   .     S
Ti767     S768    9.991   .     S
S768     S770    9.994   .     S
Ti769     S770    9.991   .     S
Ce771     Ce772    9.99   .     S
Ce771     S776    9.993   .     S
Ce772     S774    9.993   .     S
Ti773     Ti775    10.003   .     S
Ti773     Ti779    10.014   .     S
Ti773     S774    9.991   .     S
S774     S776    9.994   .     S
S774     S780    9.996   .     S
Ti775     Ti785    10.014   .     S
Ti775     S776    9.991   .     S
S776     S786    9.996   .     S
Ce777     Ce778    9.99   .     S
Ce777     S782    9.993   .     S
Ce778     S780    9.993   .     S
Ti779     Ti781    10.003   .     S
Ti779     S780    9.991   .     S
S780     S782    9.994   .     S
Ti781     Ti787    10.014   .     S
Ti781     S782    9.991   .     S
S782     S788    9.996   .     S
Ce783     Ce849    9.997   .     S
Ce783     Ce784    9.99   .     S
Ce783     S788    9.993   .     S
Ce784     Ce850    9.997   .     S
Ce784     S786    9.993   .     S
Ti785     Ti787    10.003   .     S
Ti785     S786    9.991   .     S
S786     S788    9.994   .     S
Ti787     S788    9.991   .     S
Ce789     Ce807    9.997   .     S
Ce789     Ce790    9.99   .     S
Ce789     S794    9.993   .     S
Ce790     Ce808    9.997   .     S
Ce790     S792    9.993   .     S
Ti791     Ti793    10.003   .     S
Ti791     Ti805    10.014   .     S
Ti791     S792    9.991   .     S
S792     S794    9.994   .     S
S792     S806    9.996   .     S
Ti793     Ti799    10.014   .     S
Ti793     S794    9.991   .     S
S794     S800    9.996   .     S
Ce795     Ce796    9.99   .     S
Ce795     S800    9.993   .     S
Ce796     S798    9.993   .     S
Ti797     Ti799    10.003   .     S
Ti797     Ti803    10.014   .     S
Ti797     S798    9.991   .     S
S798     S800    9.994   .     S
S798     S804    9.996   .     S
Ti799     S800    9.991   .     S
Ce801     Ce831    9.997   .     S
Ce801     Ce802    9.99   .     S
Ce801     S806    9.993   .     S
Ce802     Ce832    9.997   .     S
Ce802     S804    9.993   .     S
Ti803     Ti805    10.003   .     S
Ti803     S804    9.991   .     S
S804     S806    9.994   .     S
Ti805     S806    9.991   .     S
Ce807     Ce808    9.99   .     S
Ce807     S812    9.993   .     S
Ce808     S810    9.993   .     S
Ti809     Ti811    10.003   .     S
Ti809     Ti821    10.014   .     S
Ti809     S810    9.991   .     S
S810     S812    9.994   .     S
S810     S822    9.996   .     S
Ti811     Ti815    10.014   .     S
Ti811     S812    9.991   .     S
S812     S816    9.996   .     S
Ce813     Ce814    9.99   .     S
Ce813     S816    9.993   .     S
Ce814     S818    9.993   .     S
Ti815     Ti817    10.003   .     S
Ti815     S816    9.991   .     S
S816     S818    9.994   .     S
Ti817     Ti823    10.014   .     S
Ti817     S818    9.991   .     S
S818     S824    9.996   .     S
Ce819     Ce843    9.997   .     S
Ce819     Ce820    9.99   .     S
Ce819     S824    9.993   .     S
Ce820     Ce844    9.997   .     S
Ce820     S822    9.993   .     S
Ti821     Ti823    10.003   .     S
Ti821     S822    9.991   .     S
S822     S824    9.994   .     S
Ti823     S824    9.991   .     S
Ce825     Ce826    9.99   .     S
Ce825     S830    9.993   .     S
Ce826     S828    9.993   .     S
Ti827     Ti829    10.003   .     S
Ti827     Ti833    10.014   .     S
Ti827     S828    9.991   .     S
S828     S830    9.994   .     S
S828     S834    9.996   .     S
Ti829     Ti839    10.014   .     S
Ti829     S830    9.991   .     S
S830     S840    9.996   .     S
Ce831     Ce832    9.99   .     S
Ce831     S836    9.993   .     S
Ce832     S834    9.993   .     S
Ti833     Ti835    10.003   .     S
Ti833     S834    9.991   .     S
S834     S836    9.994   .     S
Ti835     Ti841    10.014   .     S
Ti835     S836    9.991   .     S
S836     S842    9.996   .     S
Ce837     Ce855    9.997   .     S
Ce837     Ce838    9.99   .     S
Ce837     S842    9.993   .     S
Ce838     Ce856    9.997   .     S
Ce838     S840    9.993   .     S
Ti839     Ti841    10.003   .     S
Ti839     S840    9.991   .     S
S840     S842    9.994   .     S
Ti841     S842    9.991   .     S
Ce843     Ce844    9.99   .     S
Ce843     S848    9.993   .     S
Ce844     S846    9.993   .     S
Ti845     Ti847    10.003   .     S
Ti845     Ti859    10.014   .     S
Ti845     S846    9.991   .     S
S846     S848    9.994   .     S
S846     S860    9.996   .     S
Ti847     Ti853    10.014   .     S
Ti847     S848    9.991   .     S
S848     S854    9.996   .     S
Ce849     Ce850    9.99   .     S
Ce849     S854    9.993   .     S
Ce850     S852    9.993   .     S
Ti851     Ti853    10.003   .     S
Ti851     Ti857    10.014   .     S
Ti851     S852    9.991   .     S
S852     S854    9.994   .     S
S852     S858    9.996   .     S
Ti853     S854    9.991   .     S
Ce855     Ce856    9.99   .     S
Ce855     S860    9.993   .     S
Ce856     S858    9.993   .     S
Ti857     Ti859    10.003   .     S
Ti857     S858    9.991   .     S
S858     S860    9.994   .     S
Ti859     S860    9.991   .     S
V861     V862    9.994   .     S
V861     V863    10.013   .     S
V862     V864    10.013   .     S
V863     V864    9.994   .     S
