data_ucz
_audit_creation_date              2020-02-02
_audit_creation_method            'Pymatgen'
_symmetry_space_group_name_H-M    'P1'
_symmetry_Int_Tables_number       1
loop_
_symmetry_equiv_pos_as_xyz
  x,y,z
_cell_length_a                    171.8098
_cell_length_b                    171.8098
_cell_length_c                    171.8098
_cell_angle_alpha                 90.0
_cell_angle_beta                 90.0
_cell_angle_gamma                 90.0
loop_
_atom_site_label
_atom_site_type_symbol
_atom_site_fract_x
_atom_site_fract_y
_atom_site_fract_z
V1     V     0.4709   0.7912   0.75
V2     V     0.4709   0.75   0.7912
V3     V     0.5291   0.7912   0.75
V4     V     0.5291   0.75   0.7912
V5     V     0.4709   0.75   0.7088
V6     V     0.4709   0.7088   0.75
V7     V     0.5291   0.75   0.7088
V8     V     0.5291   0.7088   0.75
V9     V     0.7912   0.75   0.4709
V10     V     0.75   0.7912   0.4709
V11     V     0.7912   0.75   0.5291
V12     V     0.75   0.7912   0.5291
V13     V     0.75   0.7088   0.4709
V14     V     0.7088   0.75   0.4709
V15     V     0.75   0.7088   0.5291
V16     V     0.7088   0.75   0.5291
V17     V     0.7912   0.4709   0.75
V18     V     0.75   0.4709   0.7912
V19     V     0.7912   0.5291   0.75
V20     V     0.75   0.5291   0.7912
V21     V     0.75   0.4709   0.7088
V22     V     0.7088   0.4709   0.75
V23     V     0.75   0.5291   0.7088
V24     V     0.7088   0.5291   0.75
V25     V     0.75   0.7912   0.0291
V26     V     0.7088   0.75   0.0291
V27     V     0.75   0.7912   0.9709
V28     V     0.7088   0.75   0.9709
V29     V     0.7912   0.75   0.0291
V30     V     0.75   0.7088   0.0291
V31     V     0.7912   0.75   0.9709
V32     V     0.75   0.7088   0.9709
V33     V     0.7912   0.0291   0.75
V34     V     0.75   0.0291   0.7088
V35     V     0.7912   0.9709   0.75
V36     V     0.75   0.9709   0.7088
V37     V     0.75   0.0291   0.7912
V38     V     0.7088   0.0291   0.75
V39     V     0.75   0.9709   0.7912
V40     V     0.7088   0.9709   0.75
V41     V     0.0291   0.75   0.7912
V42     V     0.0291   0.7088   0.75
V43     V     0.9709   0.75   0.7912
V44     V     0.9709   0.7088   0.75
V45     V     0.0291   0.7912   0.75
V46     V     0.0291   0.75   0.7088
V47     V     0.9709   0.7912   0.75
V48     V     0.9709   0.75   0.7088
V49     V     0.25   0.7912   0.4709
V50     V     0.2088   0.75   0.4709
V51     V     0.25   0.7912   0.5291
V52     V     0.2088   0.75   0.5291
V53     V     0.25   0.7088   0.4709
V54     V     0.2912   0.75   0.4709
V55     V     0.25   0.7088   0.5291
V56     V     0.2912   0.75   0.5291
V57     V     0.4709   0.7912   0.25
V58     V     0.4709   0.75   0.2088
V59     V     0.5291   0.7912   0.25
V60     V     0.5291   0.75   0.2088
V61     V     0.4709   0.7088   0.25
V62     V     0.4709   0.75   0.2912
V63     V     0.5291   0.7088   0.25
V64     V     0.5291   0.75   0.2912
V65     V     0.7912   0.25   0.4709
V66     V     0.75   0.2088   0.4709
V67     V     0.7912   0.25   0.5291
V68     V     0.75   0.2088   0.5291
V69     V     0.7088   0.25   0.4709
V70     V     0.75   0.2912   0.4709
V71     V     0.7088   0.25   0.5291
V72     V     0.75   0.2912   0.5291
V73     V     0.7912   0.4709   0.25
V74     V     0.75   0.4709   0.2088
V75     V     0.7912   0.5291   0.25
V76     V     0.75   0.5291   0.2088
V77     V     0.7088   0.4709   0.25
V78     V     0.75   0.4709   0.2912
V79     V     0.7088   0.5291   0.25
V80     V     0.75   0.5291   0.2912
V81     V     0.25   0.4709   0.7912
V82     V     0.2088   0.4709   0.75
V83     V     0.25   0.5291   0.7912
V84     V     0.2088   0.5291   0.75
V85     V     0.25   0.4709   0.7088
V86     V     0.2912   0.4709   0.75
V87     V     0.25   0.5291   0.7088
V88     V     0.2912   0.5291   0.75
V89     V     0.4709   0.25   0.7912
V90     V     0.4709   0.2088   0.75
V91     V     0.5291   0.25   0.7912
V92     V     0.5291   0.2088   0.75
V93     V     0.4709   0.25   0.7088
V94     V     0.4709   0.2912   0.75
V95     V     0.5291   0.25   0.7088
V96     V     0.5291   0.2912   0.75
V97     V     0.25   0.7912   0.0291
V98     V     0.2912   0.75   0.0291
V99     V     0.25   0.7912   0.9709
V100     V     0.2912   0.75   0.9709
V101     V     0.25   0.7088   0.0291
V102     V     0.2088   0.75   0.0291
V103     V     0.25   0.7088   0.9709
V104     V     0.2088   0.75   0.9709
V105     V     0.7912   0.25   0.0291
V106     V     0.75   0.2912   0.0291
V107     V     0.7912   0.25   0.9709
V108     V     0.75   0.2912   0.9709
V109     V     0.7088   0.25   0.0291
V110     V     0.75   0.2088   0.0291
V111     V     0.7088   0.25   0.9709
V112     V     0.75   0.2088   0.9709
V113     V     0.7912   0.0291   0.25
V114     V     0.75   0.0291   0.2912
V115     V     0.7912   0.9709   0.25
V116     V     0.75   0.9709   0.2912
V117     V     0.7088   0.0291   0.25
V118     V     0.75   0.0291   0.2088
V119     V     0.7088   0.9709   0.25
V120     V     0.75   0.9709   0.2088
V121     V     0.25   0.0291   0.7912
V122     V     0.2912   0.0291   0.75
V123     V     0.25   0.9709   0.7912
V124     V     0.2912   0.9709   0.75
V125     V     0.25   0.0291   0.7088
V126     V     0.2088   0.0291   0.75
V127     V     0.25   0.9709   0.7088
V128     V     0.2088   0.9709   0.75
V129     V     0.0291   0.7912   0.25
V130     V     0.0291   0.75   0.2912
V131     V     0.9709   0.7912   0.25
V132     V     0.9709   0.75   0.2912
V133     V     0.0291   0.7088   0.25
V134     V     0.0291   0.75   0.2088
V135     V     0.9709   0.7088   0.25
V136     V     0.9709   0.75   0.2088
V137     V     0.0291   0.25   0.7912
V138     V     0.0291   0.2912   0.75
V139     V     0.9709   0.25   0.7912
V140     V     0.9709   0.2912   0.75
V141     V     0.0291   0.25   0.7088
V142     V     0.0291   0.2088   0.75
V143     V     0.9709   0.25   0.7088
V144     V     0.9709   0.2088   0.75
Er145     Er     0.4374   0.2837   0.3249
Er146     Er     0.4374   0.3249   0.2837
Er147     Er     0.5626   0.2837   0.3249
Er148     Er     0.5626   0.3249   0.2837
Ce149     Ce     0.4709   0.3174   0.3585
Ce150     Ce     0.4709   0.3585   0.3174
Ce151     Ce     0.5291   0.3174   0.3585
Ce152     Ce     0.5291   0.3585   0.3174
Er153     Er     0.2837   0.3249   0.4374
Er154     Er     0.3249   0.2837   0.4374
Er155     Er     0.2837   0.3249   0.5626
Er156     Er     0.3249   0.2837   0.5626
Ce157     Ce     0.3174   0.3585   0.4709
Ce158     Ce     0.3585   0.3174   0.4709
Ce159     Ce     0.3174   0.3585   0.5291
Ce160     Ce     0.3585   0.3174   0.5291
Er161     Er     0.7163   0.5626   0.3249
Er162     Er     0.6751   0.5626   0.2837
Er163     Er     0.7163   0.4374   0.3249
Er164     Er     0.6751   0.4374   0.2837
Ce165     Ce     0.6826   0.5291   0.3585
Ce166     Ce     0.6415   0.5291   0.3174
Ce167     Ce     0.6826   0.4709   0.3585
Ce168     Ce     0.6415   0.4709   0.3174
Er169     Er     0.4374   0.7163   0.3249
Er170     Er     0.4374   0.6751   0.2837
Er171     Er     0.5626   0.7163   0.3249
Er172     Er     0.5626   0.6751   0.2837
Ce173     Ce     0.4709   0.6826   0.3585
Ce174     Ce     0.4709   0.6415   0.3174
Ce175     Ce     0.5291   0.6826   0.3585
Ce176     Ce     0.5291   0.6415   0.3174
Ti177     Ti     0.6089   0.3499   0.3087
S178     S     0.5754   0.3834   0.3423
Ti179     Ti     0.6089   0.3087   0.3499
S180     S     0.5754   0.3423   0.3834
Ti181     Ti     0.6913   0.3911   0.3499
S182     S     0.6577   0.4246   0.3834
Ti183     Ti     0.6501   0.3911   0.3087
S184     S     0.6166   0.4246   0.3423
Ti185     Ti     0.6913   0.3499   0.3911
S186     S     0.6577   0.3834   0.4246
Ti187     Ti     0.6501   0.3087   0.3911
S188     S     0.6166   0.3423   0.4246
Er189     Er     0.7163   0.3249   0.4374
Er190     Er     0.6751   0.2837   0.4374
Er191     Er     0.7163   0.3249   0.5626
Er192     Er     0.6751   0.2837   0.5626
Ce193     Ce     0.6826   0.3585   0.4709
Ce194     Ce     0.6415   0.3174   0.4709
Ce195     Ce     0.6826   0.3585   0.5291
Ce196     Ce     0.6415   0.3174   0.5291
Er197     Er     0.5626   0.3249   0.7163
Er198     Er     0.5626   0.2837   0.6751
Er199     Er     0.4374   0.3249   0.7163
Er200     Er     0.4374   0.2837   0.6751
Ce201     Ce     0.5291   0.3585   0.6826
Ce202     Ce     0.5291   0.3174   0.6415
Ce203     Ce     0.4709   0.3585   0.6826
Ce204     Ce     0.4709   0.3174   0.6415
Ti205     Ti     0.3499   0.3087   0.6089
S206     S     0.3834   0.3423   0.5754
Ti207     Ti     0.3087   0.3499   0.6089
S208     S     0.3423   0.3834   0.5754
Ti209     Ti     0.3911   0.3499   0.6913
S210     S     0.4246   0.3834   0.6577
Ti211     Ti     0.3911   0.3087   0.6501
S212     S     0.4246   0.3423   0.6166
Ti213     Ti     0.3499   0.3911   0.6913
S214     S     0.3834   0.4246   0.6577
Ti215     Ti     0.3087   0.3911   0.6501
S216     S     0.3423   0.4246   0.6166
Er217     Er     0.3249   0.4374   0.7163
Er218     Er     0.2837   0.4374   0.6751
Er219     Er     0.3249   0.5626   0.7163
Er220     Er     0.2837   0.5626   0.6751
Ce221     Ce     0.3585   0.4709   0.6826
Ce222     Ce     0.3174   0.4709   0.6415
Ce223     Ce     0.3585   0.5291   0.6826
Ce224     Ce     0.3174   0.5291   0.6415
Ti225     Ti     0.6089   0.3499   0.6913
S226     S     0.5754   0.3834   0.6577
Ti227     Ti     0.6089   0.3087   0.6501
S228     S     0.5754   0.3423   0.6166
Ti229     Ti     0.6913   0.3499   0.6089
S230     S     0.6577   0.3834   0.5754
Ti231     Ti     0.6501   0.3087   0.6089
S232     S     0.6166   0.3423   0.5754
Ti233     Ti     0.6501   0.3911   0.6913
S234     S     0.6166   0.4246   0.6577
Ti235     Ti     0.6913   0.3911   0.6501
S236     S     0.6577   0.4246   0.6166
Er237     Er     0.7163   0.5626   0.6751
Er238     Er     0.6751   0.5626   0.7163
Er239     Er     0.7163   0.4374   0.6751
Er240     Er     0.6751   0.4374   0.7163
Ce241     Ce     0.6826   0.4709   0.6415
Ce242     Ce     0.6415   0.4709   0.6826
Ce243     Ce     0.6826   0.5291   0.6415
Ce244     Ce     0.6415   0.5291   0.6826
Ti245     Ti     0.6089   0.6913   0.3499
S246     S     0.5754   0.6577   0.3834
Ti247     Ti     0.6089   0.6501   0.3087
S248     S     0.5754   0.6166   0.3423
Ti249     Ti     0.6913   0.6089   0.3499
S250     S     0.6577   0.5754   0.3834
Ti251     Ti     0.6501   0.6089   0.3087
S252     S     0.6166   0.5754   0.3423
Ti253     Ti     0.6501   0.6913   0.3911
S254     S     0.6166   0.6577   0.4246
Ti255     Ti     0.6913   0.6501   0.3911
S256     S     0.6577   0.6166   0.4246
Er257     Er     0.7163   0.6751   0.4374
Er258     Er     0.6751   0.7163   0.4374
Er259     Er     0.7163   0.6751   0.5626
Er260     Er     0.6751   0.7163   0.5626
Ce261     Ce     0.6826   0.6415   0.4709
Ce262     Ce     0.6415   0.6826   0.4709
Ce263     Ce     0.6826   0.6415   0.5291
Ce264     Ce     0.6415   0.6826   0.5291
Ti265     Ti     0.6501   0.6089   0.6913
S266     S     0.6166   0.5754   0.6577
Ti267     Ti     0.6913   0.6089   0.6501
S268     S     0.6577   0.5754   0.6166
Ti269     Ti     0.6913   0.6501   0.6089
S270     S     0.6577   0.6166   0.5754
Ti271     Ti     0.6501   0.6913   0.6089
S272     S     0.6166   0.6577   0.5754
Ti273     Ti     0.6089   0.6501   0.6913
S274     S     0.5754   0.6166   0.6577
Ti275     Ti     0.6089   0.6913   0.6501
S276     S     0.5754   0.6577   0.6166
Er277     Er     0.4374   0.7163   0.6751
Er278     Er     0.4374   0.6751   0.7163
Er279     Er     0.5626   0.7163   0.6751
Er280     Er     0.5626   0.6751   0.7163
Ce281     Ce     0.5291   0.6826   0.6415
Ce282     Ce     0.5291   0.6415   0.6826
Ce283     Ce     0.4709   0.6826   0.6415
Ce284     Ce     0.4709   0.6415   0.6826
Ti285     Ti     0.3499   0.6089   0.6913
S286     S     0.3834   0.5754   0.6577
Ti287     Ti     0.3087   0.6089   0.6501
S288     S     0.3423   0.5754   0.6166
Ti289     Ti     0.3911   0.6501   0.6913
S290     S     0.4246   0.6166   0.6577
Ti291     Ti     0.3911   0.6913   0.6501
S292     S     0.4246   0.6577   0.6166
Ti293     Ti     0.3499   0.6913   0.6089
S294     S     0.3834   0.6577   0.5754
Ti295     Ti     0.3087   0.6501   0.6089
S296     S     0.3423   0.6166   0.5754
Er297     Er     0.3249   0.7163   0.5626
Er298     Er     0.2837   0.6751   0.5626
Er299     Er     0.3249   0.7163   0.4374
Er300     Er     0.2837   0.6751   0.4374
Ce301     Ce     0.3585   0.6826   0.5291
Ce302     Ce     0.3174   0.6415   0.5291
Ce303     Ce     0.3585   0.6826   0.4709
Ce304     Ce     0.3174   0.6415   0.4709
Ti305     Ti     0.3911   0.6913   0.3499
S306     S     0.4246   0.6577   0.3834
Ti307     Ti     0.3911   0.6501   0.3087
S308     S     0.4246   0.6166   0.3423
Ti309     Ti     0.3499   0.6913   0.3911
S310     S     0.3834   0.6577   0.4246
Ti311     Ti     0.3087   0.6501   0.3911
S312     S     0.3423   0.6166   0.4246
Ti313     Ti     0.3499   0.6089   0.3087
S314     S     0.3834   0.5754   0.3423
Ti315     Ti     0.3087   0.6089   0.3499
S316     S     0.3423   0.5754   0.3834
Er317     Er     0.2837   0.5626   0.3249
Er318     Er     0.3249   0.5626   0.2837
Er319     Er     0.2837   0.4374   0.3249
Er320     Er     0.3249   0.4374   0.2837
Ce321     Ce     0.3174   0.5291   0.3585
Ce322     Ce     0.3585   0.5291   0.3174
Ce323     Ce     0.3174   0.4709   0.3585
Ce324     Ce     0.3585   0.4709   0.3174
Ti325     Ti     0.3911   0.3499   0.3087
S326     S     0.4246   0.3834   0.3423
Ti327     Ti     0.3911   0.3087   0.3499
S328     S     0.4246   0.3423   0.3834
Ti329     Ti     0.3499   0.3087   0.3911
S330     S     0.3834   0.3423   0.4246
Ti331     Ti     0.3087   0.3499   0.3911
S332     S     0.3423   0.3834   0.4246
Ti333     Ti     0.3499   0.3911   0.3087
S334     S     0.3834   0.4246   0.3423
Ti335     Ti     0.3087   0.3911   0.3499
S336     S     0.3423   0.4246   0.3834
V337     V     0.4709   0.2088   0.25
V338     V     0.4709   0.25   0.2088
V339     V     0.5291   0.2088   0.25
V340     V     0.5291   0.25   0.2088
V341     V     0.4709   0.25   0.2912
V342     V     0.4709   0.2912   0.25
V343     V     0.5291   0.25   0.2912
V344     V     0.5291   0.2912   0.25
V345     V     0.2088   0.25   0.4709
V346     V     0.25   0.2088   0.4709
V347     V     0.2088   0.25   0.5291
V348     V     0.25   0.2088   0.5291
V349     V     0.25   0.2912   0.4709
V350     V     0.2912   0.25   0.4709
V351     V     0.25   0.2912   0.5291
V352     V     0.2912   0.25   0.5291
V353     V     0.2088   0.4709   0.25
V354     V     0.25   0.4709   0.2088
V355     V     0.2088   0.5291   0.25
V356     V     0.25   0.5291   0.2088
V357     V     0.25   0.4709   0.2912
V358     V     0.2912   0.4709   0.25
V359     V     0.25   0.5291   0.2912
V360     V     0.2912   0.5291   0.25
Er361     Er     0.5626   0.1751   0.2163
Er362     Er     0.5626   0.2163   0.1751
Er363     Er     0.4374   0.1751   0.2163
Er364     Er     0.4374   0.2163   0.1751
Ce365     Ce     0.5291   0.1415   0.1826
Ce366     Ce     0.5291   0.1826   0.1415
Ce367     Ce     0.4709   0.1415   0.1826
Ce368     Ce     0.4709   0.1826   0.1415
Er369     Er     0.5626   0.8249   0.7837
Er370     Er     0.5626   0.7837   0.8249
Er371     Er     0.4374   0.8249   0.7837
Er372     Er     0.4374   0.7837   0.8249
Ce373     Ce     0.5291   0.8585   0.8174
Ce374     Ce     0.5291   0.8174   0.8585
Ce375     Ce     0.4709   0.8585   0.8174
Ce376     Ce     0.4709   0.8174   0.8585
Er377     Er     0.4374   0.1751   0.7837
Er378     Er     0.4374   0.2163   0.8249
Er379     Er     0.5626   0.1751   0.7837
Er380     Er     0.5626   0.2163   0.8249
Ce381     Ce     0.5291   0.1826   0.8585
Ce382     Ce     0.5291   0.1415   0.8174
Ce383     Ce     0.4709   0.1826   0.8585
Ce384     Ce     0.4709   0.1415   0.8174
Ti385     Ti     0.6089   0.1913   0.1501
S386     S     0.5754   0.1577   0.1166
Ti387     Ti     0.6089   0.1501   0.1913
S388     S     0.5754   0.1166   0.1577
Ti389     Ti     0.6501   0.1089   0.1913
S390     S     0.6166   0.0754   0.1577
Ti391     Ti     0.6913   0.1089   0.1501
S392     S     0.6577   0.0754   0.1166
Ti393     Ti     0.6501   0.1913   0.1089
S394     S     0.6166   0.1577   0.0754
Ti395     Ti     0.6913   0.1501   0.1089
S396     S     0.6577   0.1166   0.0754
Er397     Er     0.7163   0.1751   0.9374
Er398     Er     0.6751   0.2163   0.9374
Er399     Er     0.7163   0.1751   0.0626
Er400     Er     0.6751   0.2163   0.0626
Ce401     Ce     0.6415   0.1826   0.0291
Ce402     Ce     0.6826   0.1415   0.0291
Ce403     Ce     0.6415   0.1826   0.9709
Ce404     Ce     0.6826   0.1415   0.9709
Ti405     Ti     0.6089   0.1913   0.8499
S406     S     0.5754   0.1577   0.8834
Ti407     Ti     0.6089   0.1501   0.8087
S408     S     0.5754   0.1166   0.8423
Ti409     Ti     0.6501   0.1913   0.8911
S410     S     0.6166   0.1577   0.9246
Ti411     Ti     0.6913   0.1501   0.8911
S412     S     0.6577   0.1166   0.9246
Ti413     Ti     0.6913   0.1089   0.8499
S414     S     0.6577   0.0754   0.8834
Ti415     Ti     0.6501   0.1089   0.8087
S416     S     0.6166   0.0754   0.8423
Er417     Er     0.6751   0.9374   0.7837
Er418     Er     0.7163   0.9374   0.8249
Er419     Er     0.6751   0.0626   0.7837
Er420     Er     0.7163   0.0626   0.8249
Ce421     Ce     0.6826   0.0291   0.8585
Ce422     Ce     0.6415   0.0291   0.8174
Ce423     Ce     0.6826   0.9709   0.8585
Ce424     Ce     0.6415   0.9709   0.8174
Er425     Er     0.6751   0.7837   0.9374
Er426     Er     0.7163   0.8249   0.9374
Er427     Er     0.6751   0.7837   0.0626
Er428     Er     0.7163   0.8249   0.0626
Ce429     Ce     0.6826   0.8585   0.0291
Ce430     Ce     0.6415   0.8174   0.0291
Ce431     Ce     0.6826   0.8585   0.9709
Ce432     Ce     0.6415   0.8174   0.9709
Ti433     Ti     0.6089   0.8087   0.8499
S434     S     0.5754   0.8423   0.8834
Ti435     Ti     0.6089   0.8499   0.8087
S436     S     0.5754   0.8834   0.8423
Ti437     Ti     0.6913   0.8911   0.8499
S438     S     0.6577   0.9246   0.8834
Ti439     Ti     0.6501   0.8911   0.8087
S440     S     0.6166   0.9246   0.8423
Ti441     Ti     0.6913   0.8499   0.8911
S442     S     0.6577   0.8834   0.9246
Ti443     Ti     0.6501   0.8087   0.8911
S444     S     0.6166   0.8423   0.9246
Er445     Er     0.7163   0.9374   0.1751
Er446     Er     0.6751   0.9374   0.2163
Er447     Er     0.7163   0.0626   0.1751
Er448     Er     0.6751   0.0626   0.2163
Ce449     Ce     0.6415   0.0291   0.1826
Ce450     Ce     0.6826   0.0291   0.1415
Ce451     Ce     0.6415   0.9709   0.1826
Ce452     Ce     0.6826   0.9709   0.1415
Ti453     Ti     0.6501   0.8911   0.1913
S454     S     0.6166   0.9246   0.1577
Ti455     Ti     0.6913   0.8911   0.1501
S456     S     0.6577   0.9246   0.1166
Ti457     Ti     0.6089   0.8499   0.1913
S458     S     0.5754   0.8834   0.1577
Ti459     Ti     0.6089   0.8087   0.1501
S460     S     0.5754   0.8423   0.1166
Ti461     Ti     0.6913   0.8499   0.1089
S462     S     0.6577   0.8834   0.0754
Ti463     Ti     0.6501   0.8087   0.1089
S464     S     0.6166   0.8423   0.0754
Er465     Er     0.5626   0.7837   0.1751
Er466     Er     0.5626   0.8249   0.2163
Er467     Er     0.4374   0.7837   0.1751
Er468     Er     0.4374   0.8249   0.2163
Ce469     Ce     0.5291   0.8585   0.1826
Ce470     Ce     0.5291   0.8174   0.1415
Ce471     Ce     0.4709   0.8585   0.1826
Ce472     Ce     0.4709   0.8174   0.1415
Ti473     Ti     0.3499   0.1913   0.1089
S474     S     0.3834   0.1577   0.0754
Ti475     Ti     0.3087   0.1501   0.1089
S476     S     0.3423   0.1166   0.0754
Ti477     Ti     0.3911   0.1913   0.1501
S478     S     0.4246   0.1577   0.1166
Ti479     Ti     0.3911   0.1501   0.1913
S480     S     0.4246   0.1166   0.1577
Ti481     Ti     0.3499   0.1089   0.1913
S482     S     0.3834   0.0754   0.1577
Ti483     Ti     0.3087   0.1089   0.1501
S484     S     0.3423   0.0754   0.1166
Er485     Er     0.2837   0.1751   0.9374
Er486     Er     0.3249   0.2163   0.9374
Er487     Er     0.2837   0.1751   0.0626
Er488     Er     0.3249   0.2163   0.0626
Ce489     Ce     0.3585   0.1826   0.0291
Ce490     Ce     0.3174   0.1415   0.0291
Ce491     Ce     0.3585   0.1826   0.9709
Ce492     Ce     0.3174   0.1415   0.9709
Ti493     Ti     0.3499   0.1913   0.8911
S494     S     0.3834   0.1577   0.9246
Ti495     Ti     0.3087   0.1501   0.8911
S496     S     0.3423   0.1166   0.9246
Ti497     Ti     0.3911   0.1913   0.8499
S498     S     0.4246   0.1577   0.8834
Ti499     Ti     0.3911   0.1501   0.8087
S500     S     0.4246   0.1166   0.8423
Ti501     Ti     0.3087   0.1089   0.8499
S502     S     0.3423   0.0754   0.8834
Ti503     Ti     0.3499   0.1089   0.8087
S504     S     0.3834   0.0754   0.8423
Er505     Er     0.3249   0.9374   0.7837
Er506     Er     0.2837   0.9374   0.8249
Er507     Er     0.3249   0.0626   0.7837
Er508     Er     0.2837   0.0626   0.8249
Ce509     Ce     0.3174   0.0291   0.8585
Ce510     Ce     0.3585   0.0291   0.8174
Ce511     Ce     0.3174   0.9709   0.8585
Ce512     Ce     0.3585   0.9709   0.8174
Er513     Er     0.3249   0.7837   0.9374
Er514     Er     0.2837   0.8249   0.9374
Er515     Er     0.3249   0.7837   0.0626
Er516     Er     0.2837   0.8249   0.0626
Ce517     Ce     0.3174   0.8585   0.0291
Ce518     Ce     0.3585   0.8174   0.0291
Ce519     Ce     0.3174   0.8585   0.9709
Ce520     Ce     0.3585   0.8174   0.9709
Ti521     Ti     0.3087   0.8911   0.8499
S522     S     0.3423   0.9246   0.8834
Ti523     Ti     0.3499   0.8911   0.8087
S524     S     0.3834   0.9246   0.8423
Ti525     Ti     0.3911   0.8499   0.8087
S526     S     0.4246   0.8834   0.8423
Ti527     Ti     0.3911   0.8087   0.8499
S528     S     0.4246   0.8423   0.8834
Ti529     Ti     0.3087   0.8499   0.8911
S530     S     0.3423   0.8834   0.9246
Ti531     Ti     0.3499   0.8087   0.8911
S532     S     0.3834   0.8423   0.9246
Er533     Er     0.2837   0.9374   0.1751
Er534     Er     0.3249   0.9374   0.2163
Er535     Er     0.2837   0.0626   0.1751
Er536     Er     0.3249   0.0626   0.2163
Ce537     Ce     0.3585   0.0291   0.1826
Ce538     Ce     0.3174   0.0291   0.1415
Ce539     Ce     0.3585   0.9709   0.1826
Ce540     Ce     0.3174   0.9709   0.1415
Ti541     Ti     0.3911   0.8499   0.1913
S542     S     0.4246   0.8834   0.1577
Ti543     Ti     0.3911   0.8087   0.1501
S544     S     0.4246   0.8423   0.1166
Ti545     Ti     0.3087   0.8499   0.1089
S546     S     0.3423   0.8834   0.0754
Ti547     Ti     0.3499   0.8087   0.1089
S548     S     0.3834   0.8423   0.0754
Ti549     Ti     0.3499   0.8911   0.1913
S550     S     0.3834   0.9246   0.1577
Ti551     Ti     0.3087   0.8911   0.1501
S552     S     0.3423   0.9246   0.1166
V553     V     0.25   0.0291   0.2088
V554     V     0.2912   0.0291   0.25
V555     V     0.25   0.9709   0.2088
V556     V     0.2912   0.9709   0.25
V557     V     0.25   0.0291   0.2912
V558     V     0.2088   0.0291   0.25
V559     V     0.2088   0.9709   0.25
V560     V     0.25   0.9709   0.2912
Er561     Er     0.8249   0.7837   0.5626
Er562     Er     0.7837   0.8249   0.5626
Er563     Er     0.8249   0.7837   0.4374
Er564     Er     0.7837   0.8249   0.4374
Ce565     Ce     0.8585   0.8174   0.5291
Ce566     Ce     0.8174   0.8585   0.5291
Ce567     Ce     0.8585   0.8174   0.4709
Ce568     Ce     0.8174   0.8585   0.4709
Er569     Er     0.1751   0.2163   0.5626
Er570     Er     0.2163   0.1751   0.5626
Er571     Er     0.1751   0.2163   0.4374
Er572     Er     0.2163   0.1751   0.4374
Ce573     Ce     0.1415   0.1826   0.5291
Ce574     Ce     0.1826   0.1415   0.5291
Ce575     Ce     0.1415   0.1826   0.4709
Ce576     Ce     0.1826   0.1415   0.4709
Er577     Er     0.1751   0.7837   0.4374
Er578     Er     0.2163   0.8249   0.4374
Er579     Er     0.1751   0.7837   0.5626
Er580     Er     0.2163   0.8249   0.5626
Ce581     Ce     0.1826   0.8585   0.5291
Ce582     Ce     0.1415   0.8174   0.5291
Ce583     Ce     0.1826   0.8585   0.4709
Ce584     Ce     0.1415   0.8174   0.4709
Ti585     Ti     0.1913   0.1501   0.6089
S586     S     0.1577   0.1166   0.5754
Ti587     Ti     0.1501   0.1913   0.6089
S588     S     0.1166   0.1577   0.5754
Ti589     Ti     0.1089   0.1913   0.6501
S590     S     0.0754   0.1577   0.6166
Ti591     Ti     0.1089   0.1501   0.6913
S592     S     0.0754   0.1166   0.6577
Ti593     Ti     0.1913   0.1089   0.6501
S594     S     0.1577   0.0754   0.6166
Ti595     Ti     0.1501   0.1089   0.6913
S596     S     0.1166   0.0754   0.6577
Er597     Er     0.1751   0.9374   0.7163
Er598     Er     0.2163   0.9374   0.6751
Er599     Er     0.1751   0.0626   0.7163
Er600     Er     0.2163   0.0626   0.6751
Ce601     Ce     0.1826   0.0291   0.6415
Ce602     Ce     0.1415   0.0291   0.6826
Ce603     Ce     0.1826   0.9709   0.6415
Ce604     Ce     0.1415   0.9709   0.6826
Ti605     Ti     0.1913   0.8499   0.6089
S606     S     0.1577   0.8834   0.5754
Ti607     Ti     0.1501   0.8087   0.6089
S608     S     0.1166   0.8423   0.5754
Ti609     Ti     0.1913   0.8911   0.6501
S610     S     0.1577   0.9246   0.6166
Ti611     Ti     0.1501   0.8911   0.6913
S612     S     0.1166   0.9246   0.6577
Ti613     Ti     0.1089   0.8499   0.6913
S614     S     0.0754   0.8834   0.6577
Ti615     Ti     0.1089   0.8087   0.6501
S616     S     0.0754   0.8423   0.6166
Er617     Er     0.9374   0.7837   0.6751
Er618     Er     0.9374   0.8249   0.7163
Er619     Er     0.0626   0.7837   0.6751
Er620     Er     0.0626   0.8249   0.7163
Ce621     Ce     0.0291   0.8585   0.6826
Ce622     Ce     0.0291   0.8174   0.6415
Ce623     Ce     0.9709   0.8585   0.6826
Ce624     Ce     0.9709   0.8174   0.6415
Er625     Er     0.7837   0.9374   0.6751
Er626     Er     0.8249   0.9374   0.7163
Er627     Er     0.7837   0.0626   0.6751
Er628     Er     0.8249   0.0626   0.7163
Ce629     Ce     0.8585   0.0291   0.6826
Ce630     Ce     0.8174   0.0291   0.6415
Ce631     Ce     0.8585   0.9709   0.6826
Ce632     Ce     0.8174   0.9709   0.6415
Ti633     Ti     0.8087   0.8499   0.6089
S634     S     0.8423   0.8834   0.5754
Ti635     Ti     0.8499   0.8087   0.6089
S636     S     0.8834   0.8423   0.5754
Ti637     Ti     0.8911   0.8499   0.6913
S638     S     0.9246   0.8834   0.6577
Ti639     Ti     0.8911   0.8087   0.6501
S640     S     0.9246   0.8423   0.6166
Ti641     Ti     0.8499   0.8911   0.6913
S642     S     0.8834   0.9246   0.6577
Ti643     Ti     0.8087   0.8911   0.6501
S644     S     0.8423   0.9246   0.6166
Er645     Er     0.9374   0.1751   0.7163
Er646     Er     0.9374   0.2163   0.6751
Er647     Er     0.0626   0.1751   0.7163
Er648     Er     0.0626   0.2163   0.6751
Ce649     Ce     0.0291   0.1826   0.6415
Ce650     Ce     0.0291   0.1415   0.6826
Ce651     Ce     0.9709   0.1826   0.6415
Ce652     Ce     0.9709   0.1415   0.6826
Ti653     Ti     0.8911   0.1913   0.6501
S654     S     0.9246   0.1577   0.6166
Ti655     Ti     0.8911   0.1501   0.6913
S656     S     0.9246   0.1166   0.6577
Ti657     Ti     0.8499   0.1913   0.6089
S658     S     0.8834   0.1577   0.5754
Ti659     Ti     0.8087   0.1501   0.6089
S660     S     0.8423   0.1166   0.5754
Ti661     Ti     0.8499   0.1089   0.6913
S662     S     0.8834   0.0754   0.6577
Ti663     Ti     0.8087   0.1089   0.6501
S664     S     0.8423   0.0754   0.6166
Er665     Er     0.7837   0.1751   0.5626
Er666     Er     0.8249   0.2163   0.5626
Er667     Er     0.7837   0.1751   0.4374
Er668     Er     0.8249   0.2163   0.4374
Ce669     Ce     0.8585   0.1826   0.5291
Ce670     Ce     0.8174   0.1415   0.5291
Ce671     Ce     0.8585   0.1826   0.4709
Ce672     Ce     0.8174   0.1415   0.4709
Ti673     Ti     0.1913   0.1089   0.3499
S674     S     0.1577   0.0754   0.3834
Ti675     Ti     0.1501   0.1089   0.3087
S676     S     0.1166   0.0754   0.3423
Ti677     Ti     0.1913   0.1501   0.3911
S678     S     0.1577   0.1166   0.4246
Ti679     Ti     0.1501   0.1913   0.3911
S680     S     0.1166   0.1577   0.4246
Ti681     Ti     0.1089   0.1913   0.3499
S682     S     0.0754   0.1577   0.3834
Ti683     Ti     0.1089   0.1501   0.3087
S684     S     0.0754   0.1166   0.3423
Er685     Er     0.1751   0.9374   0.2837
Er686     Er     0.2163   0.9374   0.3249
Er687     Er     0.1751   0.0626   0.2837
Er688     Er     0.2163   0.0626   0.3249
Ce689     Ce     0.1826   0.0291   0.3585
Ce690     Ce     0.1415   0.0291   0.3174
Ce691     Ce     0.1826   0.9709   0.3585
Ce692     Ce     0.1415   0.9709   0.3174
Ti693     Ti     0.1913   0.8911   0.3499
S694     S     0.1577   0.9246   0.3834
Ti695     Ti     0.1501   0.8911   0.3087
S696     S     0.1166   0.9246   0.3423
Ti697     Ti     0.1913   0.8499   0.3911
S698     S     0.1577   0.8834   0.4246
Ti699     Ti     0.1501   0.8087   0.3911
S700     S     0.1166   0.8423   0.4246
Ti701     Ti     0.1089   0.8499   0.3087
S702     S     0.0754   0.8834   0.3423
Ti703     Ti     0.1089   0.8087   0.3499
S704     S     0.0754   0.8423   0.3834
Er705     Er     0.9374   0.7837   0.3249
Er706     Er     0.9374   0.8249   0.2837
Er707     Er     0.0626   0.7837   0.3249
Er708     Er     0.0626   0.8249   0.2837
Ce709     Ce     0.0291   0.8585   0.3174
Ce710     Ce     0.0291   0.8174   0.3585
Ce711     Ce     0.9709   0.8585   0.3174
Ce712     Ce     0.9709   0.8174   0.3585
Er713     Er     0.7837   0.9374   0.3249
Er714     Er     0.8249   0.9374   0.2837
Er715     Er     0.7837   0.0626   0.3249
Er716     Er     0.8249   0.0626   0.2837
Ce717     Ce     0.8585   0.0291   0.3174
Ce718     Ce     0.8174   0.0291   0.3585
Ce719     Ce     0.8585   0.9709   0.3174
Ce720     Ce     0.8174   0.9709   0.3585
Ti721     Ti     0.8911   0.8499   0.3087
S722     S     0.9246   0.8834   0.3423
Ti723     Ti     0.8911   0.8087   0.3499
S724     S     0.9246   0.8423   0.3834
Ti725     Ti     0.8499   0.8087   0.3911
S726     S     0.8834   0.8423   0.4246
Ti727     Ti     0.8087   0.8499   0.3911
S728     S     0.8423   0.8834   0.4246
Ti729     Ti     0.8499   0.8911   0.3087
S730     S     0.8834   0.9246   0.3423
Ti731     Ti     0.8087   0.8911   0.3499
S732     S     0.8423   0.9246   0.3834
Er733     Er     0.9374   0.1751   0.2837
Er734     Er     0.9374   0.2163   0.3249
Er735     Er     0.0626   0.1751   0.2837
Er736     Er     0.0626   0.2163   0.3249
Ce737     Ce     0.0291   0.1826   0.3585
Ce738     Ce     0.0291   0.1415   0.3174
Ce739     Ce     0.9709   0.1826   0.3585
Ce740     Ce     0.9709   0.1415   0.3174
Ti741     Ti     0.8499   0.1913   0.3911
S742     S     0.8834   0.1577   0.4246
Ti743     Ti     0.8087   0.1501   0.3911
S744     S     0.8423   0.1166   0.4246
Ti745     Ti     0.8499   0.1089   0.3087
S746     S     0.8834   0.0754   0.3423
Ti747     Ti     0.8087   0.1089   0.3499
S748     S     0.8423   0.0754   0.3834
Ti749     Ti     0.8911   0.1913   0.3499
S750     S     0.9246   0.1577   0.3834
Ti751     Ti     0.8911   0.1501   0.3087
S752     S     0.9246   0.1166   0.3423
V753     V     0.25   0.2088   0.0291
V754     V     0.2912   0.25   0.0291
V755     V     0.25   0.2088   0.9709
V756     V     0.2912   0.25   0.9709
V757     V     0.25   0.2912   0.0291
V758     V     0.2088   0.25   0.0291
V759     V     0.2088   0.25   0.9709
V760     V     0.25   0.2912   0.9709
V761     V     0.0291   0.25   0.2088
V762     V     0.0291   0.2912   0.25
V763     V     0.9709   0.25   0.2088
V764     V     0.9709   0.2912   0.25
V765     V     0.0291   0.2088   0.25
V766     V     0.0291   0.25   0.2912
V767     V     0.9709   0.2088   0.25
V768     V     0.9709   0.25   0.2912
Er769     Er     0.1751   0.4374   0.2163
Er770     Er     0.2163   0.4374   0.1751
Er771     Er     0.1751   0.5626   0.2163
Er772     Er     0.2163   0.5626   0.1751
Ce773     Ce     0.1415   0.4709   0.1826
Ce774     Ce     0.1826   0.4709   0.1415
Ce775     Ce     0.1415   0.5291   0.1826
Ce776     Ce     0.1826   0.5291   0.1415
Er777     Er     0.8249   0.4374   0.7837
Er778     Er     0.7837   0.4374   0.8249
Er779     Er     0.8249   0.5626   0.7837
Er780     Er     0.7837   0.5626   0.8249
Ce781     Ce     0.8585   0.4709   0.8174
Ce782     Ce     0.8174   0.4709   0.8585
Ce783     Ce     0.8585   0.5291   0.8174
Ce784     Ce     0.8174   0.5291   0.8585
Er785     Er     0.1751   0.5626   0.7837
Er786     Er     0.2163   0.5626   0.8249
Er787     Er     0.1751   0.4374   0.7837
Er788     Er     0.2163   0.4374   0.8249
Ce789     Ce     0.1826   0.4709   0.8585
Ce790     Ce     0.1415   0.4709   0.8174
Ce791     Ce     0.1826   0.5291   0.8585
Ce792     Ce     0.1415   0.5291   0.8174
Ti793     Ti     0.1913   0.6089   0.1501
S794     S     0.1577   0.5754   0.1166
Ti795     Ti     0.1501   0.6089   0.1913
S796     S     0.1166   0.5754   0.1577
Ti797     Ti     0.1089   0.6501   0.1913
S798     S     0.0754   0.6166   0.1577
Ti799     Ti     0.1089   0.6913   0.1501
S800     S     0.0754   0.6577   0.1166
Ti801     Ti     0.1913   0.6501   0.1089
S802     S     0.1577   0.6166   0.0754
Ti803     Ti     0.1501   0.6913   0.1089
S804     S     0.1166   0.6577   0.0754
Er805     Er     0.1751   0.7163   0.9374
Er806     Er     0.2163   0.6751   0.9374
Er807     Er     0.1751   0.7163   0.0626
Er808     Er     0.2163   0.6751   0.0626
Ce809     Ce     0.1826   0.6415   0.0291
Ce810     Ce     0.1415   0.6826   0.0291
Ce811     Ce     0.1826   0.6415   0.9709
Ce812     Ce     0.1415   0.6826   0.9709
Ti813     Ti     0.1913   0.6089   0.8499
S814     S     0.1577   0.5754   0.8834
Ti815     Ti     0.1501   0.6089   0.8087
S816     S     0.1166   0.5754   0.8423
Ti817     Ti     0.1913   0.6501   0.8911
S818     S     0.1577   0.6166   0.9246
Ti819     Ti     0.1501   0.6913   0.8911
S820     S     0.1166   0.6577   0.9246
Ti821     Ti     0.1089   0.6913   0.8499
S822     S     0.0754   0.6577   0.8834
Ti823     Ti     0.1089   0.6501   0.8087
S824     S     0.0754   0.6166   0.8423
Er825     Er     0.9374   0.6751   0.7837
Er826     Er     0.9374   0.7163   0.8249
Er827     Er     0.0626   0.6751   0.7837
Er828     Er     0.0626   0.7163   0.8249
Ce829     Ce     0.0291   0.6826   0.8585
Ce830     Ce     0.0291   0.6415   0.8174
Ce831     Ce     0.9709   0.6826   0.8585
Ce832     Ce     0.9709   0.6415   0.8174
Er833     Er     0.7837   0.6751   0.9374
Er834     Er     0.8249   0.7163   0.9374
Er835     Er     0.7837   0.6751   0.0626
Er836     Er     0.8249   0.7163   0.0626
Ce837     Ce     0.8585   0.6826   0.0291
Ce838     Ce     0.8174   0.6415   0.0291
Ce839     Ce     0.8585   0.6826   0.9709
Ce840     Ce     0.8174   0.6415   0.9709
Ti841     Ti     0.8087   0.6089   0.8499
S842     S     0.8423   0.5754   0.8834
Ti843     Ti     0.8499   0.6089   0.8087
S844     S     0.8834   0.5754   0.8423
Ti845     Ti     0.8911   0.6913   0.8499
S846     S     0.9246   0.6577   0.8834
Ti847     Ti     0.8911   0.6501   0.8087
S848     S     0.9246   0.6166   0.8423
Ti849     Ti     0.8499   0.6913   0.8911
S850     S     0.8834   0.6577   0.9246
Ti851     Ti     0.8087   0.6501   0.8911
S852     S     0.8423   0.6166   0.9246
Er853     Er     0.9374   0.7163   0.1751
Er854     Er     0.9374   0.6751   0.2163
Er855     Er     0.0626   0.7163   0.1751
Er856     Er     0.0626   0.6751   0.2163
Ce857     Ce     0.0291   0.6415   0.1826
Ce858     Ce     0.0291   0.6826   0.1415
Ce859     Ce     0.9709   0.6415   0.1826
Ce860     Ce     0.9709   0.6826   0.1415
Ti861     Ti     0.8911   0.6501   0.1913
S862     S     0.9246   0.6166   0.1577
Ti863     Ti     0.8911   0.6913   0.1501
S864     S     0.9246   0.6577   0.1166
Ti865     Ti     0.8499   0.6089   0.1913
S866     S     0.8834   0.5754   0.1577
Ti867     Ti     0.8087   0.6089   0.1501
S868     S     0.8423   0.5754   0.1166
Ti869     Ti     0.8499   0.6913   0.1089
S870     S     0.8834   0.6577   0.0754
Ti871     Ti     0.8087   0.6501   0.1089
S872     S     0.8423   0.6166   0.0754
Er873     Er     0.7837   0.4374   0.1751
Er874     Er     0.8249   0.4374   0.2163
Er875     Er     0.7837   0.5626   0.1751
Er876     Er     0.8249   0.5626   0.2163
Ce877     Ce     0.8585   0.5291   0.1826
Ce878     Ce     0.8174   0.5291   0.1415
Ce879     Ce     0.8585   0.4709   0.1826
Ce880     Ce     0.8174   0.4709   0.1415
Ti881     Ti     0.1089   0.3499   0.1913
S882     S     0.0754   0.3834   0.1577
Ti883     Ti     0.1089   0.3087   0.1501
S884     S     0.0754   0.3423   0.1166
Ti885     Ti     0.1501   0.3911   0.1913
S886     S     0.1166   0.4246   0.1577
Ti887     Ti     0.1913   0.3911   0.1501
S888     S     0.1577   0.4246   0.1166
Ti889     Ti     0.1913   0.3499   0.1089
S890     S     0.1577   0.3834   0.0754
Ti891     Ti     0.1501   0.3087   0.1089
S892     S     0.1166   0.3423   0.0754
Er893     Er     0.1751   0.2837   0.9374
Er894     Er     0.2163   0.3249   0.9374
Er895     Er     0.1751   0.2837   0.0626
Er896     Er     0.2163   0.3249   0.0626
Ce897     Ce     0.1826   0.3585   0.0291
Ce898     Ce     0.1415   0.3174   0.0291
Ce899     Ce     0.1826   0.3585   0.9709
Ce900     Ce     0.1415   0.3174   0.9709
Ti901     Ti     0.1913   0.3499   0.8911
S902     S     0.1577   0.3834   0.9246
Ti903     Ti     0.1501   0.3087   0.8911
S904     S     0.1166   0.3423   0.9246
Ti905     Ti     0.1913   0.3911   0.8499
S906     S     0.1577   0.4246   0.8834
Ti907     Ti     0.1501   0.3911   0.8087
S908     S     0.1166   0.4246   0.8423
Ti909     Ti     0.1089   0.3087   0.8499
S910     S     0.0754   0.3423   0.8834
Ti911     Ti     0.1089   0.3499   0.8087
S912     S     0.0754   0.3834   0.8423
Er913     Er     0.9374   0.3249   0.7837
Er914     Er     0.9374   0.2837   0.8249
Er915     Er     0.0626   0.3249   0.7837
Er916     Er     0.0626   0.2837   0.8249
Ce917     Ce     0.0291   0.3174   0.8585
Ce918     Ce     0.0291   0.3585   0.8174
Ce919     Ce     0.9709   0.3174   0.8585
Ce920     Ce     0.9709   0.3585   0.8174
Er921     Er     0.7837   0.3249   0.9374
Er922     Er     0.8249   0.2837   0.9374
Er923     Er     0.7837   0.3249   0.0626
Er924     Er     0.8249   0.2837   0.0626
Ce925     Ce     0.8585   0.3174   0.0291
Ce926     Ce     0.8174   0.3585   0.0291
Ce927     Ce     0.8585   0.3174   0.9709
Ce928     Ce     0.8174   0.3585   0.9709
Ti929     Ti     0.8911   0.3087   0.8499
S930     S     0.9246   0.3423   0.8834
Ti931     Ti     0.8911   0.3499   0.8087
S932     S     0.9246   0.3834   0.8423
Ti933     Ti     0.8499   0.3911   0.8087
S934     S     0.8834   0.4246   0.8423
Ti935     Ti     0.8087   0.3911   0.8499
S936     S     0.8423   0.4246   0.8834
Ti937     Ti     0.8499   0.3087   0.8911
S938     S     0.8834   0.3423   0.9246
Ti939     Ti     0.8087   0.3499   0.8911
S940     S     0.8423   0.3834   0.9246
Er941     Er     0.9374   0.2837   0.1751
Er942     Er     0.9374   0.3249   0.2163
Er943     Er     0.0626   0.2837   0.1751
Er944     Er     0.0626   0.3249   0.2163
Ce945     Ce     0.0291   0.3585   0.1826
Ce946     Ce     0.0291   0.3174   0.1415
Ce947     Ce     0.9709   0.3585   0.1826
Ce948     Ce     0.9709   0.3174   0.1415
Ti949     Ti     0.8499   0.3911   0.1913
S950     S     0.8834   0.4246   0.1577
Ti951     Ti     0.8087   0.3911   0.1501
S952     S     0.8423   0.4246   0.1166
Ti953     Ti     0.8499   0.3087   0.1089
S954     S     0.8834   0.3423   0.0754
Ti955     Ti     0.8087   0.3499   0.1089
S956     S     0.8423   0.3834   0.0754
Ti957     Ti     0.8911   0.3499   0.1913
S958     S     0.9246   0.3834   0.1577
Ti959     Ti     0.8911   0.3087   0.1501
S960     S     0.9246   0.3423   0.1166
loop_
_geom_bond_atom_site_label_1
_geom_bond_atom_site_label_2
_geom_bond_distance
_geom_bond_site_symmetry_2
_ccdc_geom_bond_type
V1     V3    10.003   .     S
V1     V5    10.006   .     S
V1     Er371    10.01   .     S
V1     V2    9.991   .     S
V2     V4    10.003   .     S
V2     V6    10.006   .     S
V2     Er372    10.01   .     S
V3     V7    10.006   .     S
V3     Er369    10.01   .     S
V3     V4    9.991   .     S
V4     V8    10.006   .     S
V4     Er370    10.01   .     S
V5     V7    10.003   .     S
V5     Er277    10.01   .     S
V5     V6    9.991   .     S
V6     V8    10.003   .     S
V6     Er278    10.01   .     S
V7     Er279    10.01   .     S
V7     V8    9.991   .     S
V8     Er280    10.01   .     S
V9     V11    10.003   .     S
V9     V13    10.006   .     S
V9     Er563    10.01   .     S
V9     V10    9.991   .     S
V10     V12    10.003   .     S
V10     V14    10.006   .     S
V10     Er564    10.01   .     S
V11     V15    10.006   .     S
V11     Er561    10.01   .     S
V11     V12    9.991   .     S
V12     V16    10.006   .     S
V12     Er562    10.01   .     S
V13     V15    10.003   .     S
V13     Er257    10.01   .     S
V13     V14    9.991   .     S
V14     V16    10.003   .     S
V14     Er258    10.01   .     S
V15     Er259    10.01   .     S
V15     V16    9.991   .     S
V16     Er260    10.01   .     S
V17     V19    10.003   .     S
V17     V21    10.006   .     S
V17     Er777    10.01   .     S
V17     V18    9.991   .     S
V18     V20    10.003   .     S
V18     V22    10.006   .     S
V18     Er778    10.01   .     S
V19     V23    10.006   .     S
V19     Er779    10.01   .     S
V19     V20    9.991   .     S
V20     V24    10.006   .     S
V20     Er780    10.01   .     S
V21     V23    10.003   .     S
V21     Er239    10.01   .     S
V21     V22    9.991   .     S
V22     V24    10.003   .     S
V22     Er240    10.01   .     S
V23     Er237    10.01   .     S
V23     V24    9.991   .     S
V24     Er238    10.01   .     S
V25     V27    10.003   1_554     S
V25     V29    10.006   .     S
V25     Er428    10.01   .     S
V25     V26    9.991   .     S
V26     V28    10.003   1_554     S
V26     V30    10.006   .     S
V26     Er427    10.01   .     S
V27     V25    10.003   1_556     S
V27     V31    10.006   .     S
V27     Er426    10.01   .     S
V27     V28    9.991   .     S
V28     V26    10.003   1_556     S
V28     V32    10.006   .     S
V28     Er425    10.01   .     S
V29     V31    10.003   1_554     S
V29     Er836    10.01   .     S
V29     V30    9.991   .     S
V30     V32    10.003   1_554     S
V30     Er835    10.01   .     S
V31     V29    10.003   1_556     S
V31     Er834    10.01   .     S
V31     V32    9.991   .     S
V32     V30    10.003   1_556     S
V32     Er833    10.01   .     S
V33     V35    10.003   1_545     S
V33     V37    10.006   .     S
V33     Er628    10.01   .     S
V33     V34    9.991   .     S
V34     V36    10.003   1_545     S
V34     V38    10.006   .     S
V34     Er627    10.01   .     S
V35     V33    10.003   1_565     S
V35     V39    10.006   .     S
V35     Er626    10.01   .     S
V35     V36    9.991   .     S
V36     V34    10.003   1_565     S
V36     V40    10.006   .     S
V36     Er625    10.01   .     S
V37     V39    10.003   1_545     S
V37     Er420    10.01   .     S
V37     V38    9.991   .     S
V38     V40    10.003   1_545     S
V38     Er419    10.01   .     S
V39     V37    10.003   1_565     S
V39     Er418    10.01   .     S
V39     V40    9.991   .     S
V40     V38    10.003   1_565     S
V40     Er417    10.01   .     S
V41     V43    10.003   1_455     S
V41     V45    10.006   .     S
V41     Er828    10.01   .     S
V41     V42    9.991   .     S
V42     V44    10.003   1_455     S
V42     V46    10.006   .     S
V42     Er827    10.01   .     S
V43     V41    10.003   1_655     S
V43     V47    10.006   .     S
V43     Er826    10.01   .     S
V43     V44    9.991   .     S
V44     V42    10.003   1_655     S
V44     V48    10.006   .     S
V44     Er825    10.01   .     S
V45     V47    10.003   1_455     S
V45     Er620    10.01   .     S
V45     V46    9.991   .     S
V46     V48    10.003   1_455     S
V46     Er619    10.01   .     S
V47     V45    10.003   1_655     S
V47     Er618    10.01   .     S
V47     V48    9.991   .     S
V48     V46    10.003   1_655     S
V48     Er617    10.01   .     S
V49     V51    10.003   .     S
V49     V54    10.006   .     S
V49     Er578    10.01   .     S
V49     V50    9.991   .     S
V50     V52    10.003   .     S
V50     V53    10.006   .     S
V50     Er577    10.01   .     S
V51     V56    10.006   .     S
V51     Er580    10.01   .     S
V51     V52    9.991   .     S
V52     V55    10.006   .     S
V52     Er579    10.01   .     S
V53     V55    10.003   .     S
V53     Er300    10.01   .     S
V53     V54    9.991   .     S
V54     V56    10.003   .     S
V54     Er299    10.01   .     S
V55     Er298    10.01   .     S
V55     V56    9.991   .     S
V56     Er297    10.01   .     S
V57     V59    10.003   .     S
V57     V62    10.006   .     S
V57     Er468    10.01   .     S
V57     V58    9.991   .     S
V58     V60    10.003   .     S
V58     V61    10.006   .     S
V58     Er467    10.01   .     S
V59     V64    10.006   .     S
V59     Er466    10.01   .     S
V59     V60    9.991   .     S
V60     V63    10.006   .     S
V60     Er465    10.01   .     S
V61     V63    10.003   .     S
V61     Er170    10.01   .     S
V61     V62    9.991   .     S
V62     V64    10.003   .     S
V62     Er169    10.01   .     S
V63     Er172    10.01   .     S
V63     V64    9.991   .     S
V64     Er171    10.01   .     S
V65     V67    10.003   .     S
V65     V70    10.006   .     S
V65     Er668    10.01   .     S
V65     V66    9.991   .     S
V66     V68    10.003   .     S
V66     V69    10.006   .     S
V66     Er667    10.01   .     S
V67     V72    10.006   .     S
V67     Er666    10.01   .     S
V67     V68    9.991   .     S
V68     V71    10.006   .     S
V68     Er665    10.01   .     S
V69     V71    10.003   .     S
V69     Er190    10.01   .     S
V69     V70    9.991   .     S
V70     V72    10.003   .     S
V70     Er189    10.01   .     S
V71     Er192    10.01   .     S
V71     V72    9.991   .     S
V72     Er191    10.01   .     S
V73     V75    10.003   .     S
V73     V78    10.006   .     S
V73     Er874    10.01   .     S
V73     V74    9.991   .     S
V74     V76    10.003   .     S
V74     V77    10.006   .     S
V74     Er873    10.01   .     S
V75     V80    10.006   .     S
V75     Er876    10.01   .     S
V75     V76    9.991   .     S
V76     V79    10.006   .     S
V76     Er875    10.01   .     S
V77     V79    10.003   .     S
V77     Er164    10.01   .     S
V77     V78    9.991   .     S
V78     V80    10.003   .     S
V78     Er163    10.01   .     S
V79     Er162    10.01   .     S
V79     V80    9.991   .     S
V80     Er161    10.01   .     S
V81     V83    10.003   .     S
V81     V86    10.006   .     S
V81     Er788    10.01   .     S
V81     V82    9.991   .     S
V82     V84    10.003   .     S
V82     V85    10.006   .     S
V82     Er787    10.01   .     S
V83     V88    10.006   .     S
V83     Er786    10.01   .     S
V83     V84    9.991   .     S
V84     V87    10.006   .     S
V84     Er785    10.01   .     S
V85     V87    10.003   .     S
V85     Er218    10.01   .     S
V85     V86    9.991   .     S
V86     V88    10.003   .     S
V86     Er217    10.01   .     S
V87     Er220    10.01   .     S
V87     V88    9.991   .     S
V88     Er219    10.01   .     S
V89     V91    10.003   .     S
V89     V94    10.006   .     S
V89     Er378    10.01   .     S
V89     V90    9.991   .     S
V90     V92    10.003   .     S
V90     V93    10.006   .     S
V90     Er377    10.01   .     S
V91     V96    10.006   .     S
V91     Er380    10.01   .     S
V91     V92    9.991   .     S
V92     V95    10.006   .     S
V92     Er379    10.01   .     S
V93     V95    10.003   .     S
V93     Er200    10.01   .     S
V93     V94    9.991   .     S
V94     V96    10.003   .     S
V94     Er199    10.01   .     S
V95     Er198    10.01   .     S
V95     V96    9.991   .     S
V96     Er197    10.01   .     S
V97     V99    10.003   1_554     S
V97     V102    10.006   .     S
V97     Er516    10.01   .     S
V97     V98    9.991   .     S
V98     V100    10.003   1_554     S
V98     V101    10.006   .     S
V98     Er515    10.01   .     S
V99     V97    10.003   1_556     S
V99     V104    10.006   .     S
V99     Er514    10.01   .     S
V99     V100    9.991   .     S
V100     V98    10.003   1_556     S
V100     V103    10.006   .     S
V100     Er513    10.01   .     S
V101     V103    10.003   1_554     S
V101     Er808    10.01   .     S
V101     V102    9.991   .     S
V102     V104    10.003   1_554     S
V102     Er807    10.01   .     S
V103     V101    10.003   1_556     S
V103     Er806    10.01   .     S
V103     V104    9.991   .     S
V104     V102    10.003   1_556     S
V104     Er805    10.01   .     S
V105     V107    10.003   1_554     S
V105     V110    10.006   .     S
V105     Er924    10.01   .     S
V105     V106    9.991   .     S
V106     V108    10.003   1_554     S
V106     V109    10.006   .     S
V106     Er923    10.01   .     S
V107     V105    10.003   1_556     S
V107     V112    10.006   .     S
V107     Er922    10.01   .     S
V107     V108    9.991   .     S
V108     V106    10.003   1_556     S
V108     V111    10.006   .     S
V108     Er921    10.01   .     S
V109     V111    10.003   1_554     S
V109     Er400    10.01   .     S
V109     V110    9.991   .     S
V110     V112    10.003   1_554     S
V110     Er399    10.01   .     S
V111     V109    10.003   1_556     S
V111     Er398    10.01   .     S
V111     V112    9.991   .     S
V112     V110    10.003   1_556     S
V112     Er397    10.01   .     S
V113     V115    10.003   1_545     S
V113     V118    10.006   .     S
V113     Er716    10.01   .     S
V113     V114    9.991   .     S
V114     V116    10.003   1_545     S
V114     V117    10.006   .     S
V114     Er715    10.01   .     S
V115     V113    10.003   1_565     S
V115     V120    10.006   .     S
V115     Er714    10.01   .     S
V115     V116    9.991   .     S
V116     V114    10.003   1_565     S
V116     V119    10.006   .     S
V116     Er713    10.01   .     S
V117     V119    10.003   1_545     S
V117     Er448    10.01   .     S
V117     V118    9.991   .     S
V118     V120    10.003   1_545     S
V118     Er447    10.01   .     S
V119     V117    10.003   1_565     S
V119     Er446    10.01   .     S
V119     V120    9.991   .     S
V120     V118    10.003   1_565     S
V120     Er445    10.01   .     S
V121     V123    10.003   1_545     S
V121     V126    10.006   .     S
V121     Er508    10.01   .     S
V121     V122    9.991   .     S
V122     V124    10.003   1_545     S
V122     V125    10.006   .     S
V122     Er507    10.01   .     S
V123     V121    10.003   1_565     S
V123     V128    10.006   .     S
V123     Er506    10.01   .     S
V123     V124    9.991   .     S
V124     V122    10.003   1_565     S
V124     V127    10.006   .     S
V124     Er505    10.01   .     S
V125     V127    10.003   1_545     S
V125     Er600    10.01   .     S
V125     V126    9.991   .     S
V126     V128    10.003   1_545     S
V126     Er599    10.01   .     S
V127     V125    10.003   1_565     S
V127     Er598    10.01   .     S
V127     V128    9.991   .     S
V128     V126    10.003   1_565     S
V128     Er597    10.01   .     S
V129     V131    10.003   1_455     S
V129     V134    10.006   .     S
V129     Er708    10.01   .     S
V129     V130    9.991   .     S
V130     V132    10.003   1_455     S
V130     V133    10.006   .     S
V130     Er707    10.01   .     S
V131     V129    10.003   1_655     S
V131     V136    10.006   .     S
V131     Er706    10.01   .     S
V131     V132    9.991   .     S
V132     V130    10.003   1_655     S
V132     V135    10.006   .     S
V132     Er705    10.01   .     S
V133     V135    10.003   1_455     S
V133     Er856    10.01   .     S
V133     V134    9.991   .     S
V134     V136    10.003   1_455     S
V134     Er855    10.01   .     S
V135     V133    10.003   1_655     S
V135     Er854    10.01   .     S
V135     V136    9.991   .     S
V136     V134    10.003   1_655     S
V136     Er853    10.01   .     S
V137     V139    10.003   1_455     S
V137     V142    10.006   .     S
V137     Er916    10.01   .     S
V137     V138    9.991   .     S
V138     V140    10.003   1_455     S
V138     V141    10.006   .     S
V138     Er915    10.01   .     S
V139     V137    10.003   1_655     S
V139     V144    10.006   .     S
V139     Er914    10.01   .     S
V139     V140    9.991   .     S
V140     V138    10.003   1_655     S
V140     V143    10.006   .     S
V140     Er913    10.01   .     S
V141     V143    10.003   1_455     S
V141     Er648    10.01   .     S
V141     V142    9.991   .     S
V142     V144    10.003   1_455     S
V142     Er647    10.01   .     S
V143     V141    10.003   1_655     S
V143     Er646    10.01   .     S
V143     V144    9.991   .     S
V144     V142    10.003   1_655     S
V144     Er645    10.01   .     S
Er145     Er146    9.996   .     S
Er145     Ce149    10.0   .     S
Er145     V341    10.01   .     S
Er145     Ti327    10.01   .     S
Er146     Ce150    10.0   .     S
Er146     V342    10.01   .     S
Er146     Ti325    10.01   .     S
Er147     Er148    9.996   .     S
Er147     Ce151    10.0   .     S
Er147     V343    10.01   .     S
Er147     Ti179    10.01   .     S
Er148     Ce152    10.0   .     S
Er148     V344    10.01   .     S
Er148     Ti177    10.01   .     S
Ce149     Ce150    9.994   .     S
Ce149     S328    9.999   .     S
Ce149     Ce151    9.999   .     S
Ce150     S326    9.999   .     S
Ce150     Ce152    9.999   .     S
Ce151     Ce152    9.994   .     S
Ce151     S180    9.999   .     S
Ce152     S178    9.999   .     S
Er153     Er154    9.996   .     S
Er153     Ce157    10.0   .     S
Er153     V349    10.01   .     S
Er153     Ti331    10.01   .     S
Er154     Ce158    10.0   .     S
Er154     V350    10.01   .     S
Er154     Ti329    10.01   .     S
Er155     Er156    9.996   .     S
Er155     Ce159    10.0   .     S
Er155     V351    10.01   .     S
Er155     Ti207    10.01   .     S
Er156     Ce160    10.0   .     S
Er156     V352    10.01   .     S
Er156     Ti205    10.01   .     S
Ce157     Ce158    9.994   .     S
Ce157     S332    9.999   .     S
Ce157     Ce159    9.999   .     S
Ce158     S330    9.999   .     S
Ce158     Ce160    9.999   .     S
Ce159     Ce160    9.994   .     S
Ce159     S208    9.999   .     S
Ce160     S206    9.999   .     S
Er161     Er162    9.996   .     S
Er161     Ce165    10.0   .     S
Er161     Ti249    10.01   .     S
Er162     Ce166    10.0   .     S
Er162     Ti251    10.01   .     S
Er163     Er164    9.996   .     S
Er163     Ce167    10.0   .     S
Er163     Ti181    10.01   .     S
Er164     Ce168    10.0   .     S
Er164     Ti183    10.01   .     S
Ce165     Ce166    9.994   .     S
Ce165     S250    9.999   .     S
Ce165     Ce167    9.999   .     S
Ce166     S252    9.999   .     S
Ce166     Ce168    9.999   .     S
Ce167     Ce168    9.994   .     S
Ce167     S182    9.999   .     S
Ce168     S184    9.999   .     S
Er169     Er170    9.996   .     S
Er169     Ce173    10.0   .     S
Er169     Ti305    10.01   .     S
Er170     Ce174    10.0   .     S
Er170     Ti307    10.01   .     S
Er171     Er172    9.996   .     S
Er171     Ce175    10.0   .     S
Er171     Ti245    10.01   .     S
Er172     Ce176    10.0   .     S
Er172     Ti247    10.01   .     S
Ce173     Ce174    9.994   .     S
Ce173     S306    9.999   .     S
Ce173     Ce175    9.999   .     S
Ce174     S308    9.999   .     S
Ce174     Ce176    9.999   .     S
Ce175     Ce176    9.994   .     S
Ce175     S246    9.999   .     S
Ce176     S248    9.999   .     S
Ti177     Ti179    9.996   .     S
Ti177     Ti183    10.013   .     S
Ti177     S178    9.985   .     S
S178     S180    9.996   .     S
S178     S184    10.001   .     S
Ti179     Ti187    10.013   .     S
Ti179     S180    9.985   .     S
S180     S188    10.001   .     S
Ti181     Ti183    9.996   .     S
Ti181     Ti185    10.013   .     S
Ti181     S182    9.985   .     S
S182     S184    9.996   .     S
S182     S186    10.001   .     S
Ti183     S184    9.985   .     S
Ti185     Ti187    9.996   .     S
Ti185     Er189    10.01   .     S
Ti185     S186    9.985   .     S
S186     S188    9.996   .     S
S186     Ce193    9.999   .     S
Ti187     Er190    10.01   .     S
Ti187     S188    9.985   .     S
S188     Ce194    9.999   .     S
Er189     Er190    9.996   .     S
Er189     Ce193    10.0   .     S
Er190     Ce194    10.0   .     S
Er191     Er192    9.996   .     S
Er191     Ce195    10.0   .     S
Er191     Ti229    10.01   .     S
Er192     Ce196    10.0   .     S
Er192     Ti231    10.01   .     S
Ce193     Ce194    9.994   .     S
Ce193     Ce195    9.999   .     S
Ce194     Ce196    9.999   .     S
Ce195     Ce196    9.994   .     S
Ce195     S230    9.999   .     S
Ce196     S232    9.999   .     S
Er197     Er198    9.996   .     S
Er197     Ce201    10.0   .     S
Er197     Ti225    10.01   .     S
Er198     Ce202    10.0   .     S
Er198     Ti227    10.01   .     S
Er199     Er200    9.996   .     S
Er199     Ce203    10.0   .     S
Er199     Ti209    10.01   .     S
Er200     Ce204    10.0   .     S
Er200     Ti211    10.01   .     S
Ce201     Ce202    9.994   .     S
Ce201     S226    9.999   .     S
Ce201     Ce203    9.999   .     S
Ce202     S228    9.999   .     S
Ce202     Ce204    9.999   .     S
Ce203     Ce204    9.994   .     S
Ce203     S210    9.999   .     S
Ce204     S212    9.999   .     S
Ti205     Ti207    9.996   .     S
Ti205     Ti211    10.013   .     S
Ti205     S206    9.985   .     S
S206     S208    9.996   .     S
S206     S212    10.001   .     S
Ti207     Ti215    10.013   .     S
Ti207     S208    9.985   .     S
S208     S216    10.001   .     S
Ti209     Ti211    9.996   .     S
Ti209     Ti213    10.013   .     S
Ti209     S210    9.985   .     S
S210     S212    9.996   .     S
S210     S214    10.001   .     S
Ti211     S212    9.985   .     S
Ti213     Ti215    9.996   .     S
Ti213     Er217    10.01   .     S
Ti213     S214    9.985   .     S
S214     S216    9.996   .     S
S214     Ce221    9.999   .     S
Ti215     Er218    10.01   .     S
Ti215     S216    9.985   .     S
S216     Ce222    9.999   .     S
Er217     Er218    9.996   .     S
Er217     Ce221    10.0   .     S
Er218     Ce222    10.0   .     S
Er219     Er220    9.996   .     S
Er219     Ce223    10.0   .     S
Er219     Ti285    10.01   .     S
Er220     Ce224    10.0   .     S
Er220     Ti287    10.01   .     S
Ce221     Ce222    9.994   .     S
Ce221     Ce223    9.999   .     S
Ce222     Ce224    9.999   .     S
Ce223     Ce224    9.994   .     S
Ce223     S286    9.999   .     S
Ce224     S288    9.999   .     S
Ti225     Ti227    9.996   .     S
Ti225     Ti233    10.013   .     S
Ti225     S226    9.985   .     S
S226     S228    9.996   .     S
S226     S234    10.001   .     S
Ti227     Ti231    10.013   .     S
Ti227     S228    9.985   .     S
S228     S232    10.001   .     S
Ti229     Ti231    9.996   .     S
Ti229     Ti235    10.013   .     S
Ti229     S230    9.985   .     S
S230     S232    9.996   .     S
S230     S236    10.001   .     S
Ti231     S232    9.985   .     S
Ti233     Ti235    9.996   .     S
Ti233     Er240    10.01   .     S
Ti233     S234    9.985   .     S
S234     S236    9.996   .     S
S234     Ce242    9.999   .     S
Ti235     Er239    10.01   .     S
Ti235     S236    9.985   .     S
S236     Ce241    9.999   .     S
Er237     Er238    9.996   .     S
Er237     Ce243    10.0   .     S
Er237     Ti267    10.01   .     S
Er238     Ce244    10.0   .     S
Er238     Ti265    10.01   .     S
Er239     Er240    9.996   .     S
Er239     Ce241    10.0   .     S
Er240     Ce242    10.0   .     S
Ce241     Ce242    9.994   .     S
Ce241     Ce243    9.999   .     S
Ce242     Ce244    9.999   .     S
Ce243     Ce244    9.994   .     S
Ce243     S268    9.999   .     S
Ce244     S266    9.999   .     S
Ti245     Ti247    9.996   .     S
Ti245     Ti253    10.013   .     S
Ti245     S246    9.985   .     S
S246     S248    9.996   .     S
S246     S254    10.001   .     S
Ti247     Ti251    10.013   .     S
Ti247     S248    9.985   .     S
S248     S252    10.001   .     S
Ti249     Ti251    9.996   .     S
Ti249     Ti255    10.013   .     S
Ti249     S250    9.985   .     S
S250     S252    9.996   .     S
S250     S256    10.001   .     S
Ti251     S252    9.985   .     S
Ti253     Ti255    9.996   .     S
Ti253     Er258    10.01   .     S
Ti253     S254    9.985   .     S
S254     S256    9.996   .     S
S254     Ce262    9.999   .     S
Ti255     Er257    10.01   .     S
Ti255     S256    9.985   .     S
S256     Ce261    9.999   .     S
Er257     Er258    9.996   .     S
Er257     Ce261    10.0   .     S
Er258     Ce262    10.0   .     S
Er259     Er260    9.996   .     S
Er259     Ce263    10.0   .     S
Er259     Ti269    10.01   .     S
Er260     Ce264    10.0   .     S
Er260     Ti271    10.01   .     S
Ce261     Ce262    9.994   .     S
Ce261     Ce263    9.999   .     S
Ce262     Ce264    9.999   .     S
Ce263     Ce264    9.994   .     S
Ce263     S270    9.999   .     S
Ce264     S272    9.999   .     S
Ti265     Ti267    9.996   .     S
Ti265     Ti273    10.013   .     S
Ti265     S266    9.985   .     S
S266     S268    9.996   .     S
S266     S274    10.001   .     S
Ti267     Ti269    10.013   .     S
Ti267     S268    9.985   .     S
S268     S270    10.001   .     S
Ti269     Ti271    9.996   .     S
Ti269     S270    9.985   .     S
S270     S272    9.996   .     S
Ti271     Ti275    10.013   .     S
Ti271     S272    9.985   .     S
S272     S276    10.001   .     S
Ti273     Ti275    9.996   .     S
Ti273     Er280    10.01   .     S
Ti273     S274    9.985   .     S
S274     S276    9.996   .     S
S274     Ce282    9.999   .     S
Ti275     Er279    10.01   .     S
Ti275     S276    9.985   .     S
S276     Ce281    9.999   .     S
Er277     Er278    9.996   .     S
Er277     Ce283    10.0   .     S
Er277     Ti291    10.01   .     S
Er278     Ce284    10.0   .     S
Er278     Ti289    10.01   .     S
Er279     Er280    9.996   .     S
Er279     Ce281    10.0   .     S
Er280     Ce282    10.0   .     S
Ce281     Ce282    9.994   .     S
Ce281     Ce283    9.999   .     S
Ce282     Ce284    9.999   .     S
Ce283     Ce284    9.994   .     S
Ce283     S292    9.999   .     S
Ce284     S290    9.999   .     S
Ti285     Ti287    9.996   .     S
Ti285     Ti289    10.013   .     S
Ti285     S286    9.985   .     S
S286     S288    9.996   .     S
S286     S290    10.001   .     S
Ti287     Ti295    10.013   .     S
Ti287     S288    9.985   .     S
S288     S296    10.001   .     S
Ti289     Ti291    9.996   .     S
Ti289     S290    9.985   .     S
S290     S292    9.996   .     S
Ti291     Ti293    10.013   .     S
Ti291     S292    9.985   .     S
S292     S294    10.001   .     S
Ti293     Ti295    9.996   .     S
Ti293     Er297    10.01   .     S
Ti293     S294    9.985   .     S
S294     S296    9.996   .     S
S294     Ce301    9.999   .     S
Ti295     Er298    10.01   .     S
Ti295     S296    9.985   .     S
S296     Ce302    9.999   .     S
Er297     Er298    9.996   .     S
Er297     Ce301    10.0   .     S
Er298     Ce302    10.0   .     S
Er299     Er300    9.996   .     S
Er299     Ce303    10.0   .     S
Er299     Ti309    10.01   .     S
Er300     Ce304    10.0   .     S
Er300     Ti311    10.01   .     S
Ce301     Ce302    9.994   .     S
Ce301     Ce303    9.999   .     S
Ce302     Ce304    9.999   .     S
Ce303     Ce304    9.994   .     S
Ce303     S310    9.999   .     S
Ce304     S312    9.999   .     S
Ti305     Ti307    9.996   .     S
Ti305     Ti309    10.013   .     S
Ti305     S306    9.985   .     S
S306     S308    9.996   .     S
S306     S310    10.001   .     S
Ti307     Ti313    10.013   .     S
Ti307     S308    9.985   .     S
S308     S314    10.001   .     S
Ti309     Ti311    9.996   .     S
Ti309     S310    9.985   .     S
S310     S312    9.996   .     S
Ti311     Ti315    10.013   .     S
Ti311     S312    9.985   .     S
S312     S316    10.001   .     S
Ti313     Ti315    9.996   .     S
Ti313     Er318    10.01   .     S
Ti313     S314    9.985   .     S
S314     S316    9.996   .     S
S314     Ce322    9.999   .     S
Ti315     Er317    10.01   .     S
Ti315     S316    9.985   .     S
S316     Ce321    9.999   .     S
Er317     Er318    9.996   .     S
Er317     Ce321    10.0   .     S
Er317     V359    10.01   .     S
Er318     Ce322    10.0   .     S
Er318     V360    10.01   .     S
Er319     Er320    9.996   .     S
Er319     Ce323    10.0   .     S
Er319     V357    10.01   .     S
Er319     Ti335    10.01   .     S
Er320     Ce324    10.0   .     S
Er320     V358    10.01   .     S
Er320     Ti333    10.01   .     S
Ce321     Ce322    9.994   .     S
Ce321     Ce323    9.999   .     S
Ce322     Ce324    9.999   .     S
Ce323     Ce324    9.994   .     S
Ce323     S336    9.999   .     S
Ce324     S334    9.999   .     S
Ti325     Ti327    9.996   .     S
Ti325     Ti333    10.013   .     S
Ti325     S326    9.985   .     S
S326     S328    9.996   .     S
S326     S334    10.001   .     S
Ti327     Ti329    10.013   .     S
Ti327     S328    9.985   .     S
S328     S330    10.001   .     S
Ti329     Ti331    9.996   .     S
Ti329     S330    9.985   .     S
S330     S332    9.996   .     S
Ti331     Ti335    10.013   .     S
Ti331     S332    9.985   .     S
S332     S336    10.001   .     S
Ti333     Ti335    9.996   .     S
Ti333     S334    9.985   .     S
S334     S336    9.996   .     S
Ti335     S336    9.985   .     S
V337     V339    10.003   .     S
V337     V341    10.006   .     S
V337     Er363    10.01   .     S
V337     V338    9.991   .     S
V338     V340    10.003   .     S
V338     V342    10.006   .     S
V338     Er364    10.01   .     S
V339     V343    10.006   .     S
V339     Er361    10.01   .     S
V339     V340    9.991   .     S
V340     V344    10.006   .     S
V340     Er362    10.01   .     S
V341     V343    10.003   .     S
V341     V342    9.991   .     S
V342     V344    10.003   .     S
V343     V344    9.991   .     S
V345     V347    10.003   .     S
V345     V349    10.006   .     S
V345     Er571    10.01   .     S
V345     V346    9.991   .     S
V346     V348    10.003   .     S
V346     V350    10.006   .     S
V346     Er572    10.01   .     S
V347     V351    10.006   .     S
V347     Er569    10.01   .     S
V347     V348    9.991   .     S
V348     V352    10.006   .     S
V348     Er570    10.01   .     S
V349     V351    10.003   .     S
V349     V350    9.991   .     S
V350     V352    10.003   .     S
V351     V352    9.991   .     S
V353     V355    10.003   .     S
V353     V357    10.006   .     S
V353     Er769    10.01   .     S
V353     V354    9.991   .     S
V354     V356    10.003   .     S
V354     V358    10.006   .     S
V354     Er770    10.01   .     S
V355     V359    10.006   .     S
V355     Er771    10.01   .     S
V355     V356    9.991   .     S
V356     V360    10.006   .     S
V356     Er772    10.01   .     S
V357     V359    10.003   .     S
V357     V358    9.991   .     S
V358     V360    10.003   .     S
V359     V360    9.991   .     S
Er361     Er362    9.996   .     S
Er361     Ce365    10.0   .     S
Er361     Ti387    10.01   .     S
Er362     Ce366    10.0   .     S
Er362     Ti385    10.01   .     S
Er363     Er364    9.996   .     S
Er363     Ce367    10.0   .     S
Er363     Ti479    10.01   .     S
Er364     Ce368    10.0   .     S
Er364     Ti477    10.01   .     S
Ce365     Ce366    9.994   .     S
Ce365     S388    9.999   .     S
Ce365     Ce367    9.999   .     S
Ce366     S386    9.999   .     S
Ce366     Ce368    9.999   .     S
Ce367     Ce368    9.994   .     S
Ce367     S480    9.999   .     S
Ce368     S478    9.999   .     S
Er369     Er370    9.996   .     S
Er369     Ce373    10.0   .     S
Er369     Ti435    10.01   .     S
Er370     Ce374    10.0   .     S
Er370     Ti433    10.01   .     S
Er371     Er372    9.996   .     S
Er371     Ce375    10.0   .     S
Er371     Ti525    10.01   .     S
Er372     Ce376    10.0   .     S
Er372     Ti527    10.01   .     S
Ce373     Ce374    9.994   .     S
Ce373     S436    9.999   .     S
Ce373     Ce375    9.999   .     S
Ce374     S434    9.999   .     S
Ce374     Ce376    9.999   .     S
Ce375     Ce376    9.994   .     S
Ce375     S526    9.999   .     S
Ce376     S528    9.999   .     S
Er377     Er378    9.996   .     S
Er377     Ce384    10.0   .     S
Er377     Ti499    10.01   .     S
Er378     Ce383    10.0   .     S
Er378     Ti497    10.01   .     S
Er379     Er380    9.996   .     S
Er379     Ce382    10.0   .     S
Er379     Ti407    10.01   .     S
Er380     Ce381    10.0   .     S
Er380     Ti405    10.01   .     S
Ce381     Ce382    9.994   .     S
Ce381     S406    9.999   .     S
Ce381     Ce383    9.999   .     S
Ce382     S408    9.999   .     S
Ce382     Ce384    9.999   .     S
Ce383     Ce384    9.994   .     S
Ce383     S498    9.999   .     S
Ce384     S500    9.999   .     S
Ti385     Ti387    9.996   .     S
Ti385     Ti393    10.013   .     S
Ti385     S386    9.985   .     S
S386     S388    9.996   .     S
S386     S394    10.001   .     S
Ti387     Ti389    10.013   .     S
Ti387     S388    9.985   .     S
S388     S390    10.001   .     S
Ti389     Ti391    9.996   .     S
Ti389     Er448    10.01   .     S
Ti389     S390    9.985   .     S
S390     S392    9.996   .     S
S390     Ce449    9.999   .     S
Ti391     Er447    10.01   .     S
Ti391     Ti395    10.013   .     S
Ti391     S392    9.985   .     S
S392     S396    10.001   .     S
S392     Ce450    9.999   .     S
Ti393     Ti395    9.996   .     S
Ti393     Er400    10.01   .     S
Ti393     S394    9.985   .     S
S394     S396    9.996   .     S
S394     Ce401    9.999   .     S
Ti395     Er399    10.01   .     S
Ti395     S396    9.985   .     S
S396     Ce402    9.999   .     S
Er397     Er398    9.996   .     S
Er397     Ce404    10.0   .     S
Er397     Ti411    10.01   .     S
Er398     Ce403    10.0   .     S
Er398     Ti409    10.01   .     S
Er399     Er400    9.996   .     S
Er399     Ce402    10.0   .     S
Er400     Ce401    10.0   .     S
Ce401     Ce402    9.994   .     S
Ce401     Ce403    9.999   1_554     S
Ce402     Ce404    9.999   1_554     S
Ce403     Ce404    9.994   .     S
Ce403     S410    9.999   .     S
Ce403     Ce401    9.999   1_556     S
Ce404     S412    9.999   .     S
Ce404     Ce402    9.999   1_556     S
Ti405     Ti407    9.996   .     S
Ti405     Ti409    10.013   .     S
Ti405     S406    9.985   .     S
S406     S408    9.996   .     S
S406     S410    10.001   .     S
Ti407     Ti415    10.013   .     S
Ti407     S408    9.985   .     S
S408     S416    10.001   .     S
Ti409     Ti411    9.996   .     S
Ti409     S410    9.985   .     S
S410     S412    9.996   .     S
Ti411     Ti413    10.013   .     S
Ti411     S412    9.985   .     S
S412     S414    10.001   .     S
Ti413     Ti415    9.996   .     S
Ti413     Er420    10.01   .     S
Ti413     S414    9.985   .     S
S414     S416    9.996   .     S
S414     Ce421    9.999   .     S
Ti415     Er419    10.01   .     S
Ti415     S416    9.985   .     S
S416     Ce422    9.999   .     S
Er417     Er418    9.996   .     S
Er417     Ce424    10.0   .     S
Er417     Ti439    10.01   .     S
Er418     Ce423    10.0   .     S
Er418     Ti437    10.01   .     S
Er419     Er420    9.996   .     S
Er419     Ce422    10.0   .     S
Er420     Ce421    10.0   .     S
Ce421     Ce422    9.994   .     S
Ce421     Ce423    9.999   1_545     S
Ce422     Ce424    9.999   1_545     S
Ce423     Ce424    9.994   .     S
Ce423     S438    9.999   .     S
Ce423     Ce421    9.999   1_565     S
Ce424     S440    9.999   .     S
Ce424     Ce422    9.999   1_565     S
Er425     Er426    9.996   .     S
Er425     Ce432    10.0   .     S
Er425     Ti443    10.01   .     S
Er426     Ce431    10.0   .     S
Er426     Ti441    10.01   .     S
Er427     Er428    9.996   .     S
Er427     Ce430    10.0   .     S
Er427     Ti463    10.01   .     S
Er428     Ce429    10.0   .     S
Er428     Ti461    10.01   .     S
Ce429     Ce430    9.994   .     S
Ce429     S462    9.999   .     S
Ce429     Ce431    9.999   1_554     S
Ce430     S464    9.999   .     S
Ce430     Ce432    9.999   1_554     S
Ce431     Ce432    9.994   .     S
Ce431     S442    9.999   .     S
Ce431     Ce429    9.999   1_556     S
Ce432     S444    9.999   .     S
Ce432     Ce430    9.999   1_556     S
Ti433     Ti435    9.996   .     S
Ti433     Ti443    10.013   .     S
Ti433     S434    9.985   .     S
S434     S436    9.996   .     S
S434     S444    10.001   .     S
Ti435     Ti439    10.013   .     S
Ti435     S436    9.985   .     S
S436     S440    10.001   .     S
Ti437     Ti439    9.996   .     S
Ti437     Ti441    10.013   .     S
Ti437     S438    9.985   .     S
S438     S440    9.996   .     S
S438     S442    10.001   .     S
Ti439     S440    9.985   .     S
Ti441     Ti443    9.996   .     S
Ti441     S442    9.985   .     S
S442     S444    9.996   .     S
Ti443     S444    9.985   .     S
Er445     Er446    9.996   .     S
Er445     Ce452    10.0   .     S
Er445     Ti455    10.01   .     S
Er446     Ce451    10.0   .     S
Er446     Ti453    10.01   .     S
Er447     Er448    9.996   .     S
Er447     Ce450    10.0   .     S
Er448     Ce449    10.0   .     S
Ce449     Ce450    9.994   .     S
Ce449     Ce451    9.999   1_545     S
Ce450     Ce452    9.999   1_545     S
Ce451     Ce452    9.994   .     S
Ce451     S454    9.999   .     S
Ce451     Ce449    9.999   1_565     S
Ce452     S456    9.999   .     S
Ce452     Ce450    9.999   1_565     S
Ti453     Ti455    9.996   .     S
Ti453     Ti457    10.013   .     S
Ti453     S454    9.985   .     S
S454     S456    9.996   .     S
S454     S458    10.001   .     S
Ti455     Ti461    10.013   .     S
Ti455     S456    9.985   .     S
S456     S462    10.001   .     S
Ti457     Ti459    9.996   .     S
Ti457     Er466    10.01   .     S
Ti457     S458    9.985   .     S
S458     S460    9.996   .     S
S458     Ce469    9.999   .     S
Ti459     Er465    10.01   .     S
Ti459     Ti463    10.013   .     S
Ti459     S460    9.985   .     S
S460     S464    10.001   .     S
S460     Ce470    9.999   .     S
Ti461     Ti463    9.996   .     S
Ti461     S462    9.985   .     S
S462     S464    9.996   .     S
Ti463     S464    9.985   .     S
Er465     Er466    9.996   .     S
Er465     Ce470    10.0   .     S
Er466     Ce469    10.0   .     S
Er467     Er468    9.996   .     S
Er467     Ce472    10.0   .     S
Er467     Ti543    10.01   .     S
Er468     Ce471    10.0   .     S
Er468     Ti541    10.01   .     S
Ce469     Ce470    9.994   .     S
Ce469     Ce471    9.999   .     S
Ce470     Ce472    9.999   .     S
Ce471     Ce472    9.994   .     S
Ce471     S542    9.999   .     S
Ce472     S544    9.999   .     S
Ti473     Ti475    9.996   .     S
Ti473     Er488    10.01   .     S
Ti473     Ti477    10.013   .     S
Ti473     S474    9.985   .     S
S474     S476    9.996   .     S
S474     S478    10.001   .     S
S474     Ce489    9.999   .     S
Ti475     Er487    10.01   .     S
Ti475     Ti483    10.013   .     S
Ti475     S476    9.985   .     S
S476     S484    10.001   .     S
S476     Ce490    9.999   .     S
Ti477     Ti479    9.996   .     S
Ti477     S478    9.985   .     S
S478     S480    9.996   .     S
Ti479     Ti481    10.013   .     S
Ti479     S480    9.985   .     S
S480     S482    10.001   .     S
Ti481     Ti483    9.996   .     S
Ti481     Er536    10.01   .     S
Ti481     S482    9.985   .     S
S482     S484    9.996   .     S
S482     Ce537    9.999   .     S
Ti483     Er535    10.01   .     S
Ti483     S484    9.985   .     S
S484     Ce538    9.999   .     S
Er485     Er486    9.996   .     S
Er485     Ce492    10.0   .     S
Er485     V755    10.01   .     S
Er485     Ti495    10.01   .     S
Er486     Ce491    10.0   .     S
Er486     V756    10.01   .     S
Er486     Ti493    10.01   .     S
Er487     Er488    9.996   .     S
Er487     Ce490    10.0   .     S
Er487     V753    10.01   .     S
Er488     Ce489    10.0   .     S
Er488     V754    10.01   .     S
Ce489     Ce490    9.994   .     S
Ce489     Ce491    9.999   1_554     S
Ce490     Ce492    9.999   1_554     S
Ce491     Ce492    9.994   .     S
Ce491     S494    9.999   .     S
Ce491     Ce489    9.999   1_556     S
Ce492     S496    9.999   .     S
Ce492     Ce490    9.999   1_556     S
Ti493     Ti495    9.996   .     S
Ti493     Ti497    10.013   .     S
Ti493     S494    9.985   .     S
S494     S496    9.996   .     S
S494     S498    10.001   .     S
Ti495     Ti501    10.013   .     S
Ti495     S496    9.985   .     S
S496     S502    10.001   .     S
Ti497     Ti499    9.996   .     S
Ti497     S498    9.985   .     S
S498     S500    9.996   .     S
Ti499     Ti503    10.013   .     S
Ti499     S500    9.985   .     S
S500     S504    10.001   .     S
Ti501     Ti503    9.996   .     S
Ti501     Er508    10.01   .     S
Ti501     S502    9.985   .     S
S502     S504    9.996   .     S
S502     Ce509    9.999   .     S
Ti503     Er507    10.01   .     S
Ti503     S504    9.985   .     S
S504     Ce510    9.999   .     S
Er505     Er506    9.996   .     S
Er505     Ce512    10.0   .     S
Er505     Ti523    10.01   .     S
Er506     Ce511    10.0   .     S
Er506     Ti521    10.01   .     S
Er507     Er508    9.996   .     S
Er507     Ce510    10.0   .     S
Er508     Ce509    10.0   .     S
Ce509     Ce510    9.994   .     S
Ce509     Ce511    9.999   1_545     S
Ce510     Ce512    9.999   1_545     S
Ce511     Ce512    9.994   .     S
Ce511     S522    9.999   .     S
Ce511     Ce509    9.999   1_565     S
Ce512     S524    9.999   .     S
Ce512     Ce510    9.999   1_565     S
Er513     Er514    9.996   .     S
Er513     Ce520    10.0   .     S
Er513     Ti531    10.01   .     S
Er514     Ce519    10.0   .     S
Er514     Ti529    10.01   .     S
Er515     Er516    9.996   .     S
Er515     Ce518    10.0   .     S
Er515     Ti547    10.01   .     S
Er516     Ce517    10.0   .     S
Er516     Ti545    10.01   .     S
Ce517     Ce518    9.994   .     S
Ce517     S546    9.999   .     S
Ce517     Ce519    9.999   1_554     S
Ce518     S548    9.999   .     S
Ce518     Ce520    9.999   1_554     S
Ce519     Ce520    9.994   .     S
Ce519     S530    9.999   .     S
Ce519     Ce517    9.999   1_556     S
Ce520     S532    9.999   .     S
Ce520     Ce518    9.999   1_556     S
Ti521     Ti523    9.996   .     S
Ti521     Ti529    10.013   .     S
Ti521     S522    9.985   .     S
S522     S524    9.996   .     S
S522     S530    10.001   .     S
Ti523     Ti525    10.013   .     S
Ti523     S524    9.985   .     S
S524     S526    10.001   .     S
Ti525     Ti527    9.996   .     S
Ti525     S526    9.985   .     S
S526     S528    9.996   .     S
Ti527     Ti531    10.013   .     S
Ti527     S528    9.985   .     S
S528     S532    10.001   .     S
Ti529     Ti531    9.996   .     S
Ti529     S530    9.985   .     S
S530     S532    9.996   .     S
Ti531     S532    9.985   .     S
Er533     Er534    9.996   .     S
Er533     Ce540    10.0   .     S
Er533     V555    10.01   .     S
Er533     Ti551    10.01   .     S
Er534     Ce539    10.0   .     S
Er534     V556    10.01   .     S
Er534     Ti549    10.01   .     S
Er535     Er536    9.996   .     S
Er535     Ce538    10.0   .     S
Er535     V553    10.01   .     S
Er536     Ce537    10.0   .     S
Er536     V554    10.01   .     S
Ce537     Ce538    9.994   .     S
Ce537     Ce539    9.999   1_545     S
Ce538     Ce540    9.999   1_545     S
Ce539     Ce540    9.994   .     S
Ce539     S550    9.999   .     S
Ce539     Ce537    9.999   1_565     S
Ce540     S552    9.999   .     S
Ce540     Ce538    9.999   1_565     S
Ti541     Ti543    9.996   .     S
Ti541     Ti549    10.013   .     S
Ti541     S542    9.985   .     S
S542     S544    9.996   .     S
S542     S550    10.001   .     S
Ti543     Ti547    10.013   .     S
Ti543     S544    9.985   .     S
S544     S548    10.001   .     S
Ti545     Ti547    9.996   .     S
Ti545     Ti551    10.013   .     S
Ti545     S546    9.985   .     S
S546     S548    9.996   .     S
S546     S552    10.001   .     S
Ti547     S548    9.985   .     S
Ti549     Ti551    9.996   .     S
Ti549     S550    9.985   .     S
S550     S552    9.996   .     S
Ti551     S552    9.985   .     S
V553     V555    10.003   1_545     S
V553     V558    10.006   .     S
V553     V554    9.991   .     S
V554     V556    10.003   1_545     S
V554     V557    10.006   .     S
V555     V553    10.003   1_565     S
V555     V559    10.006   .     S
V555     V556    9.991   .     S
V556     V554    10.003   1_565     S
V556     V560    10.006   .     S
V557     V560    10.003   1_545     S
V557     Er688    10.01   .     S
V557     V558    9.991   .     S
V558     V559    10.003   1_545     S
V558     Er687    10.01   .     S
V559     V558    10.003   1_565     S
V559     Er685    10.01   .     S
V559     V560    9.991   .     S
V560     V557    10.003   1_565     S
V560     Er686    10.01   .     S
Er561     Er562    9.996   .     S
Er561     Ce565    10.0   .     S
Er561     Ti635    10.01   .     S
Er562     Ce566    10.0   .     S
Er562     Ti633    10.01   .     S
Er563     Er564    9.996   .     S
Er563     Ce567    10.0   .     S
Er563     Ti725    10.01   .     S
Er564     Ce568    10.0   .     S
Er564     Ti727    10.01   .     S
Ce565     Ce566    9.994   .     S
Ce565     S636    9.999   .     S
Ce565     Ce567    9.999   .     S
Ce566     S634    9.999   .     S
Ce566     Ce568    9.999   .     S
Ce567     Ce568    9.994   .     S
Ce567     S726    9.999   .     S
Ce568     S728    9.999   .     S
Er569     Er570    9.996   .     S
Er569     Ce573    10.0   .     S
Er569     Ti587    10.01   .     S
Er570     Ce574    10.0   .     S
Er570     Ti585    10.01   .     S
Er571     Er572    9.996   .     S
Er571     Ce575    10.0   .     S
Er571     Ti679    10.01   .     S
Er572     Ce576    10.0   .     S
Er572     Ti677    10.01   .     S
Ce573     Ce574    9.994   .     S
Ce573     S588    9.999   .     S
Ce573     Ce575    9.999   .     S
Ce574     S586    9.999   .     S
Ce574     Ce576    9.999   .     S
Ce575     Ce576    9.994   .     S
Ce575     S680    9.999   .     S
Ce576     S678    9.999   .     S
Er577     Er578    9.996   .     S
Er577     Ce584    10.0   .     S
Er577     Ti699    10.01   .     S
Er578     Ce583    10.0   .     S
Er578     Ti697    10.01   .     S
Er579     Er580    9.996   .     S
Er579     Ce582    10.0   .     S
Er579     Ti607    10.01   .     S
Er580     Ce581    10.0   .     S
Er580     Ti605    10.01   .     S
Ce581     Ce582    9.994   .     S
Ce581     S606    9.999   .     S
Ce581     Ce583    9.999   .     S
Ce582     S608    9.999   .     S
Ce582     Ce584    9.999   .     S
Ce583     Ce584    9.994   .     S
Ce583     S698    9.999   .     S
Ce584     S700    9.999   .     S
Ti585     Ti587    9.996   .     S
Ti585     Ti593    10.013   .     S
Ti585     S586    9.985   .     S
S586     S588    9.996   .     S
S586     S594    10.001   .     S
Ti587     Ti589    10.013   .     S
Ti587     S588    9.985   .     S
S588     S590    10.001   .     S
Ti589     Ti591    9.996   .     S
Ti589     Er648    10.01   .     S
Ti589     S590    9.985   .     S
S590     S592    9.996   .     S
S590     Ce649    9.999   .     S
Ti591     Er647    10.01   .     S
Ti591     Ti595    10.013   .     S
Ti591     S592    9.985   .     S
S592     S596    10.001   .     S
S592     Ce650    9.999   .     S
Ti593     Ti595    9.996   .     S
Ti593     Er600    10.01   .     S
Ti593     S594    9.985   .     S
S594     S596    9.996   .     S
S594     Ce601    9.999   .     S
Ti595     Er599    10.01   .     S
Ti595     S596    9.985   .     S
S596     Ce602    9.999   .     S
Er597     Er598    9.996   .     S
Er597     Ce604    10.0   .     S
Er597     Ti611    10.01   .     S
Er598     Ce603    10.0   .     S
Er598     Ti609    10.01   .     S
Er599     Er600    9.996   .     S
Er599     Ce602    10.0   .     S
Er600     Ce601    10.0   .     S
Ce601     Ce602    9.994   .     S
Ce601     Ce603    9.999   1_545     S
Ce602     Ce604    9.999   1_545     S
Ce603     Ce604    9.994   .     S
Ce603     S610    9.999   .     S
Ce603     Ce601    9.999   1_565     S
Ce604     S612    9.999   .     S
Ce604     Ce602    9.999   1_565     S
Ti605     Ti607    9.996   .     S
Ti605     Ti609    10.013   .     S
Ti605     S606    9.985   .     S
S606     S608    9.996   .     S
S606     S610    10.001   .     S
Ti607     Ti615    10.013   .     S
Ti607     S608    9.985   .     S
S608     S616    10.001   .     S
Ti609     Ti611    9.996   .     S
Ti609     S610    9.985   .     S
S610     S612    9.996   .     S
Ti611     Ti613    10.013   .     S
Ti611     S612    9.985   .     S
S612     S614    10.001   .     S
Ti613     Ti615    9.996   .     S
Ti613     Er620    10.01   .     S
Ti613     S614    9.985   .     S
S614     S616    9.996   .     S
S614     Ce621    9.999   .     S
Ti615     Er619    10.01   .     S
Ti615     S616    9.985   .     S
S616     Ce622    9.999   .     S
Er617     Er618    9.996   .     S
Er617     Ce624    10.0   .     S
Er617     Ti639    10.01   .     S
Er618     Ce623    10.0   .     S
Er618     Ti637    10.01   .     S
Er619     Er620    9.996   .     S
Er619     Ce622    10.0   .     S
Er620     Ce621    10.0   .     S
Ce621     Ce622    9.994   .     S
Ce621     Ce623    9.999   1_455     S
Ce622     Ce624    9.999   1_455     S
Ce623     Ce624    9.994   .     S
Ce623     S638    9.999   .     S
Ce623     Ce621    9.999   1_655     S
Ce624     S640    9.999   .     S
Ce624     Ce622    9.999   1_655     S
Er625     Er626    9.996   .     S
Er625     Ce632    10.0   .     S
Er625     Ti643    10.01   .     S
Er626     Ce631    10.0   .     S
Er626     Ti641    10.01   .     S
Er627     Er628    9.996   .     S
Er627     Ce630    10.0   .     S
Er627     Ti663    10.01   .     S
Er628     Ce629    10.0   .     S
Er628     Ti661    10.01   .     S
Ce629     Ce630    9.994   .     S
Ce629     S662    9.999   .     S
Ce629     Ce631    9.999   1_545     S
Ce630     S664    9.999   .     S
Ce630     Ce632    9.999   1_545     S
Ce631     Ce632    9.994   .     S
Ce631     S642    9.999   .     S
Ce631     Ce629    9.999   1_565     S
Ce632     S644    9.999   .     S
Ce632     Ce630    9.999   1_565     S
Ti633     Ti635    9.996   .     S
Ti633     Ti643    10.013   .     S
Ti633     S634    9.985   .     S
S634     S636    9.996   .     S
S634     S644    10.001   .     S
Ti635     Ti639    10.013   .     S
Ti635     S636    9.985   .     S
S636     S640    10.001   .     S
Ti637     Ti639    9.996   .     S
Ti637     Ti641    10.013   .     S
Ti637     S638    9.985   .     S
S638     S640    9.996   .     S
S638     S642    10.001   .     S
Ti639     S640    9.985   .     S
Ti641     Ti643    9.996   .     S
Ti641     S642    9.985   .     S
S642     S644    9.996   .     S
Ti643     S644    9.985   .     S
Er645     Er646    9.996   .     S
Er645     Ce652    10.0   .     S
Er645     Ti655    10.01   .     S
Er646     Ce651    10.0   .     S
Er646     Ti653    10.01   .     S
Er647     Er648    9.996   .     S
Er647     Ce650    10.0   .     S
Er648     Ce649    10.0   .     S
Ce649     Ce650    9.994   .     S
Ce649     Ce651    9.999   1_455     S
Ce650     Ce652    9.999   1_455     S
Ce651     Ce652    9.994   .     S
Ce651     S654    9.999   .     S
Ce651     Ce649    9.999   1_655     S
Ce652     S656    9.999   .     S
Ce652     Ce650    9.999   1_655     S
Ti653     Ti655    9.996   .     S
Ti653     Ti657    10.013   .     S
Ti653     S654    9.985   .     S
S654     S656    9.996   .     S
S654     S658    10.001   .     S
Ti655     Ti661    10.013   .     S
Ti655     S656    9.985   .     S
S656     S662    10.001   .     S
Ti657     Ti659    9.996   .     S
Ti657     Er666    10.01   .     S
Ti657     S658    9.985   .     S
S658     S660    9.996   .     S
S658     Ce669    9.999   .     S
Ti659     Er665    10.01   .     S
Ti659     Ti663    10.013   .     S
Ti659     S660    9.985   .     S
S660     S664    10.001   .     S
S660     Ce670    9.999   .     S
Ti661     Ti663    9.996   .     S
Ti661     S662    9.985   .     S
S662     S664    9.996   .     S
Ti663     S664    9.985   .     S
Er665     Er666    9.996   .     S
Er665     Ce670    10.0   .     S
Er666     Ce669    10.0   .     S
Er667     Er668    9.996   .     S
Er667     Ce672    10.0   .     S
Er667     Ti743    10.01   .     S
Er668     Ce671    10.0   .     S
Er668     Ti741    10.01   .     S
Ce669     Ce670    9.994   .     S
Ce669     Ce671    9.999   .     S
Ce670     Ce672    9.999   .     S
Ce671     Ce672    9.994   .     S
Ce671     S742    9.999   .     S
Ce672     S744    9.999   .     S
Ti673     Ti675    9.996   .     S
Ti673     Er688    10.01   .     S
Ti673     Ti677    10.013   .     S
Ti673     S674    9.985   .     S
S674     S676    9.996   .     S
S674     S678    10.001   .     S
S674     Ce689    9.999   .     S
Ti675     Er687    10.01   .     S
Ti675     Ti683    10.013   .     S
Ti675     S676    9.985   .     S
S676     S684    10.001   .     S
S676     Ce690    9.999   .     S
Ti677     Ti679    9.996   .     S
Ti677     S678    9.985   .     S
S678     S680    9.996   .     S
Ti679     Ti681    10.013   .     S
Ti679     S680    9.985   .     S
S680     S682    10.001   .     S
Ti681     Ti683    9.996   .     S
Ti681     Er736    10.01   .     S
Ti681     S682    9.985   .     S
S682     S684    9.996   .     S
S682     Ce737    9.999   .     S
Ti683     Er735    10.01   .     S
Ti683     S684    9.985   .     S
S684     Ce738    9.999   .     S
Er685     Er686    9.996   .     S
Er685     Ce692    10.0   .     S
Er685     Ti695    10.01   .     S
Er686     Ce691    10.0   .     S
Er686     Ti693    10.01   .     S
Er687     Er688    9.996   .     S
Er687     Ce690    10.0   .     S
Er688     Ce689    10.0   .     S
Ce689     Ce690    9.994   .     S
Ce689     Ce691    9.999   1_545     S
Ce690     Ce692    9.999   1_545     S
Ce691     Ce692    9.994   .     S
Ce691     S694    9.999   .     S
Ce691     Ce689    9.999   1_565     S
Ce692     S696    9.999   .     S
Ce692     Ce690    9.999   1_565     S
Ti693     Ti695    9.996   .     S
Ti693     Ti697    10.013   .     S
Ti693     S694    9.985   .     S
S694     S696    9.996   .     S
S694     S698    10.001   .     S
Ti695     Ti701    10.013   .     S
Ti695     S696    9.985   .     S
S696     S702    10.001   .     S
Ti697     Ti699    9.996   .     S
Ti697     S698    9.985   .     S
S698     S700    9.996   .     S
Ti699     Ti703    10.013   .     S
Ti699     S700    9.985   .     S
S700     S704    10.001   .     S
Ti701     Ti703    9.996   .     S
Ti701     Er708    10.01   .     S
Ti701     S702    9.985   .     S
S702     S704    9.996   .     S
S702     Ce709    9.999   .     S
Ti703     Er707    10.01   .     S
Ti703     S704    9.985   .     S
S704     Ce710    9.999   .     S
Er705     Er706    9.996   .     S
Er705     Ce712    10.0   .     S
Er705     Ti723    10.01   .     S
Er706     Ce711    10.0   .     S
Er706     Ti721    10.01   .     S
Er707     Er708    9.996   .     S
Er707     Ce710    10.0   .     S
Er708     Ce709    10.0   .     S
Ce709     Ce710    9.994   .     S
Ce709     Ce711    9.999   1_455     S
Ce710     Ce712    9.999   1_455     S
Ce711     Ce712    9.994   .     S
Ce711     S722    9.999   .     S
Ce711     Ce709    9.999   1_655     S
Ce712     S724    9.999   .     S
Ce712     Ce710    9.999   1_655     S
Er713     Er714    9.996   .     S
Er713     Ce720    10.0   .     S
Er713     Ti731    10.01   .     S
Er714     Ce719    10.0   .     S
Er714     Ti729    10.01   .     S
Er715     Er716    9.996   .     S
Er715     Ce718    10.0   .     S
Er715     Ti747    10.01   .     S
Er716     Ce717    10.0   .     S
Er716     Ti745    10.01   .     S
Ce717     Ce718    9.994   .     S
Ce717     S746    9.999   .     S
Ce717     Ce719    9.999   1_545     S
Ce718     S748    9.999   .     S
Ce718     Ce720    9.999   1_545     S
Ce719     Ce720    9.994   .     S
Ce719     S730    9.999   .     S
Ce719     Ce717    9.999   1_565     S
Ce720     S732    9.999   .     S
Ce720     Ce718    9.999   1_565     S
Ti721     Ti723    9.996   .     S
Ti721     Ti729    10.013   .     S
Ti721     S722    9.985   .     S
S722     S724    9.996   .     S
S722     S730    10.001   .     S
Ti723     Ti725    10.013   .     S
Ti723     S724    9.985   .     S
S724     S726    10.001   .     S
Ti725     Ti727    9.996   .     S
Ti725     S726    9.985   .     S
S726     S728    9.996   .     S
Ti727     Ti731    10.013   .     S
Ti727     S728    9.985   .     S
S728     S732    10.001   .     S
Ti729     Ti731    9.996   .     S
Ti729     S730    9.985   .     S
S730     S732    9.996   .     S
Ti731     S732    9.985   .     S
Er733     Er734    9.996   .     S
Er733     Ce740    10.0   .     S
Er733     V767    10.01   .     S
Er733     Ti751    10.01   .     S
Er734     Ce739    10.0   .     S
Er734     V768    10.01   .     S
Er734     Ti749    10.01   .     S
Er735     Er736    9.996   .     S
Er735     Ce738    10.0   .     S
Er735     V765    10.01   .     S
Er736     Ce737    10.0   .     S
Er736     V766    10.01   .     S
Ce737     Ce738    9.994   .     S
Ce737     Ce739    9.999   1_455     S
Ce738     Ce740    9.999   1_455     S
Ce739     Ce740    9.994   .     S
Ce739     S750    9.999   .     S
Ce739     Ce737    9.999   1_655     S
Ce740     S752    9.999   .     S
Ce740     Ce738    9.999   1_655     S
Ti741     Ti743    9.996   .     S
Ti741     Ti749    10.013   .     S
Ti741     S742    9.985   .     S
S742     S744    9.996   .     S
S742     S750    10.001   .     S
Ti743     Ti747    10.013   .     S
Ti743     S744    9.985   .     S
S744     S748    10.001   .     S
Ti745     Ti747    9.996   .     S
Ti745     Ti751    10.013   .     S
Ti745     S746    9.985   .     S
S746     S748    9.996   .     S
S746     S752    10.001   .     S
Ti747     S748    9.985   .     S
Ti749     Ti751    9.996   .     S
Ti749     S750    9.985   .     S
S750     S752    9.996   .     S
Ti751     S752    9.985   .     S
V753     V755    10.003   1_554     S
V753     V758    10.006   .     S
V753     V754    9.991   .     S
V754     V756    10.003   1_554     S
V754     V757    10.006   .     S
V755     V753    10.003   1_556     S
V755     V759    10.006   .     S
V755     V756    9.991   .     S
V756     V754    10.003   1_556     S
V756     V760    10.006   .     S
V757     V760    10.003   1_554     S
V757     Er896    10.01   .     S
V757     V758    9.991   .     S
V758     V759    10.003   1_554     S
V758     Er895    10.01   .     S
V759     V758    10.003   1_556     S
V759     Er893    10.01   .     S
V759     V760    9.991   .     S
V760     V757    10.003   1_556     S
V760     Er894    10.01   .     S
V761     V763    10.003   1_455     S
V761     V765    10.006   .     S
V761     Er943    10.01   .     S
V761     V762    9.991   .     S
V762     V764    10.003   1_455     S
V762     V766    10.006   .     S
V762     Er944    10.01   .     S
V763     V761    10.003   1_655     S
V763     V767    10.006   .     S
V763     Er941    10.01   .     S
V763     V764    9.991   .     S
V764     V762    10.003   1_655     S
V764     V768    10.006   .     S
V764     Er942    10.01   .     S
V765     V767    10.003   1_455     S
V765     V766    9.991   .     S
V766     V768    10.003   1_455     S
V767     V765    10.003   1_655     S
V767     V768    9.991   .     S
V768     V766    10.003   1_655     S
Er769     Er770    9.996   .     S
Er769     Ce773    10.0   .     S
Er769     Ti885    10.01   .     S
Er770     Ce774    10.0   .     S
Er770     Ti887    10.01   .     S
Er771     Er772    9.996   .     S
Er771     Ce775    10.0   .     S
Er771     Ti795    10.01   .     S
Er772     Ce776    10.0   .     S
Er772     Ti793    10.01   .     S
Ce773     Ce774    9.994   .     S
Ce773     S886    9.999   .     S
Ce773     Ce775    9.999   .     S
Ce774     S888    9.999   .     S
Ce774     Ce776    9.999   .     S
Ce775     Ce776    9.994   .     S
Ce775     S796    9.999   .     S
Ce776     S794    9.999   .     S
Er777     Er778    9.996   .     S
Er777     Ce781    10.0   .     S
Er777     Ti933    10.01   .     S
Er778     Ce782    10.0   .     S
Er778     Ti935    10.01   .     S
Er779     Er780    9.996   .     S
Er779     Ce783    10.0   .     S
Er779     Ti843    10.01   .     S
Er780     Ce784    10.0   .     S
Er780     Ti841    10.01   .     S
Ce781     Ce782    9.994   .     S
Ce781     S934    9.999   .     S
Ce781     Ce783    9.999   .     S
Ce782     S936    9.999   .     S
Ce782     Ce784    9.999   .     S
Ce783     Ce784    9.994   .     S
Ce783     S844    9.999   .     S
Ce784     S842    9.999   .     S
Er785     Er786    9.996   .     S
Er785     Ce792    10.0   .     S
Er785     Ti815    10.01   .     S
Er786     Ce791    10.0   .     S
Er786     Ti813    10.01   .     S
Er787     Er788    9.996   .     S
Er787     Ce790    10.0   .     S
Er787     Ti907    10.01   .     S
Er788     Ce789    10.0   .     S
Er788     Ti905    10.01   .     S
Ce789     Ce790    9.994   .     S
Ce789     S906    9.999   .     S
Ce789     Ce791    9.999   .     S
Ce790     S908    9.999   .     S
Ce790     Ce792    9.999   .     S
Ce791     Ce792    9.994   .     S
Ce791     S814    9.999   .     S
Ce792     S816    9.999   .     S
Ti793     Ti795    9.996   .     S
Ti793     Ti801    10.013   .     S
Ti793     S794    9.985   .     S
S794     S796    9.996   .     S
S794     S802    10.001   .     S
Ti795     Ti797    10.013   .     S
Ti795     S796    9.985   .     S
S796     S798    10.001   .     S
Ti797     Ti799    9.996   .     S
Ti797     Er856    10.01   .     S
Ti797     S798    9.985   .     S
S798     S800    9.996   .     S
S798     Ce857    9.999   .     S
Ti799     Er855    10.01   .     S
Ti799     Ti803    10.013   .     S
Ti799     S800    9.985   .     S
S800     S804    10.001   .     S
S800     Ce858    9.999   .     S
Ti801     Ti803    9.996   .     S
Ti801     Er808    10.01   .     S
Ti801     S802    9.985   .     S
S802     S804    9.996   .     S
S802     Ce809    9.999   .     S
Ti803     Er807    10.01   .     S
Ti803     S804    9.985   .     S
S804     Ce810    9.999   .     S
Er805     Er806    9.996   .     S
Er805     Ce812    10.0   .     S
Er805     Ti819    10.01   .     S
Er806     Ce811    10.0   .     S
Er806     Ti817    10.01   .     S
Er807     Er808    9.996   .     S
Er807     Ce810    10.0   .     S
Er808     Ce809    10.0   .     S
Ce809     Ce810    9.994   .     S
Ce809     Ce811    9.999   1_554     S
Ce810     Ce812    9.999   1_554     S
Ce811     Ce812    9.994   .     S
Ce811     S818    9.999   .     S
Ce811     Ce809    9.999   1_556     S
Ce812     S820    9.999   .     S
Ce812     Ce810    9.999   1_556     S
Ti813     Ti815    9.996   .     S
Ti813     Ti817    10.013   .     S
Ti813     S814    9.985   .     S
S814     S816    9.996   .     S
S814     S818    10.001   .     S
Ti815     Ti823    10.013   .     S
Ti815     S816    9.985   .     S
S816     S824    10.001   .     S
Ti817     Ti819    9.996   .     S
Ti817     S818    9.985   .     S
S818     S820    9.996   .     S
Ti819     Ti821    10.013   .     S
Ti819     S820    9.985   .     S
S820     S822    10.001   .     S
Ti821     Ti823    9.996   .     S
Ti821     Er828    10.01   .     S
Ti821     S822    9.985   .     S
S822     S824    9.996   .     S
S822     Ce829    9.999   .     S
Ti823     Er827    10.01   .     S
Ti823     S824    9.985   .     S
S824     Ce830    9.999   .     S
Er825     Er826    9.996   .     S
Er825     Ce832    10.0   .     S
Er825     Ti847    10.01   .     S
Er826     Ce831    10.0   .     S
Er826     Ti845    10.01   .     S
Er827     Er828    9.996   .     S
Er827     Ce830    10.0   .     S
Er828     Ce829    10.0   .     S
Ce829     Ce830    9.994   .     S
Ce829     Ce831    9.999   1_455     S
Ce830     Ce832    9.999   1_455     S
Ce831     Ce832    9.994   .     S
Ce831     S846    9.999   .     S
Ce831     Ce829    9.999   1_655     S
Ce832     S848    9.999   .     S
Ce832     Ce830    9.999   1_655     S
Er833     Er834    9.996   .     S
Er833     Ce840    10.0   .     S
Er833     Ti851    10.01   .     S
Er834     Ce839    10.0   .     S
Er834     Ti849    10.01   .     S
Er835     Er836    9.996   .     S
Er835     Ce838    10.0   .     S
Er835     Ti871    10.01   .     S
Er836     Ce837    10.0   .     S
Er836     Ti869    10.01   .     S
Ce837     Ce838    9.994   .     S
Ce837     S870    9.999   .     S
Ce837     Ce839    9.999   1_554     S
Ce838     S872    9.999   .     S
Ce838     Ce840    9.999   1_554     S
Ce839     Ce840    9.994   .     S
Ce839     S850    9.999   .     S
Ce839     Ce837    9.999   1_556     S
Ce840     S852    9.999   .     S
Ce840     Ce838    9.999   1_556     S
Ti841     Ti843    9.996   .     S
Ti841     Ti851    10.013   .     S
Ti841     S842    9.985   .     S
S842     S844    9.996   .     S
S842     S852    10.001   .     S
Ti843     Ti847    10.013   .     S
Ti843     S844    9.985   .     S
S844     S848    10.001   .     S
Ti845     Ti847    9.996   .     S
Ti845     Ti849    10.013   .     S
Ti845     S846    9.985   .     S
S846     S848    9.996   .     S
S846     S850    10.001   .     S
Ti847     S848    9.985   .     S
Ti849     Ti851    9.996   .     S
Ti849     S850    9.985   .     S
S850     S852    9.996   .     S
Ti851     S852    9.985   .     S
Er853     Er854    9.996   .     S
Er853     Ce860    10.0   .     S
Er853     Ti863    10.01   .     S
Er854     Ce859    10.0   .     S
Er854     Ti861    10.01   .     S
Er855     Er856    9.996   .     S
Er855     Ce858    10.0   .     S
Er856     Ce857    10.0   .     S
Ce857     Ce858    9.994   .     S
Ce857     Ce859    9.999   1_455     S
Ce858     Ce860    9.999   1_455     S
Ce859     Ce860    9.994   .     S
Ce859     S862    9.999   .     S
Ce859     Ce857    9.999   1_655     S
Ce860     S864    9.999   .     S
Ce860     Ce858    9.999   1_655     S
Ti861     Ti863    9.996   .     S
Ti861     Ti865    10.013   .     S
Ti861     S862    9.985   .     S
S862     S864    9.996   .     S
S862     S866    10.001   .     S
Ti863     Ti869    10.013   .     S
Ti863     S864    9.985   .     S
S864     S870    10.001   .     S
Ti865     Ti867    9.996   .     S
Ti865     Er876    10.01   .     S
Ti865     S866    9.985   .     S
S866     S868    9.996   .     S
S866     Ce877    9.999   .     S
Ti867     Er875    10.01   .     S
Ti867     Ti871    10.013   .     S
Ti867     S868    9.985   .     S
S868     S872    10.001   .     S
S868     Ce878    9.999   .     S
Ti869     Ti871    9.996   .     S
Ti869     S870    9.985   .     S
S870     S872    9.996   .     S
Ti871     S872    9.985   .     S
Er873     Er874    9.996   .     S
Er873     Ce880    10.0   .     S
Er873     Ti951    10.01   .     S
Er874     Ce879    10.0   .     S
Er874     Ti949    10.01   .     S
Er875     Er876    9.996   .     S
Er875     Ce878    10.0   .     S
Er876     Ce877    10.0   .     S
Ce877     Ce878    9.994   .     S
Ce877     Ce879    9.999   .     S
Ce878     Ce880    9.999   .     S
Ce879     Ce880    9.994   .     S
Ce879     S950    9.999   .     S
Ce880     S952    9.999   .     S
Ti881     Ti883    9.996   .     S
Ti881     Er944    10.01   .     S
Ti881     Ti885    10.013   .     S
Ti881     S882    9.985   .     S
S882     S884    9.996   .     S
S882     S886    10.001   .     S
S882     Ce945    9.999   .     S
Ti883     Er943    10.01   .     S
Ti883     Ti891    10.013   .     S
Ti883     S884    9.985   .     S
S884     S892    10.001   .     S
S884     Ce946    9.999   .     S
Ti885     Ti887    9.996   .     S
Ti885     S886    9.985   .     S
S886     S888    9.996   .     S
Ti887     Ti889    10.013   .     S
Ti887     S888    9.985   .     S
S888     S890    10.001   .     S
Ti889     Ti891    9.996   .     S
Ti889     Er896    10.01   .     S
Ti889     S890    9.985   .     S
S890     S892    9.996   .     S
S890     Ce897    9.999   .     S
Ti891     Er895    10.01   .     S
Ti891     S892    9.985   .     S
S892     Ce898    9.999   .     S
Er893     Er894    9.996   .     S
Er893     Ce900    10.0   .     S
Er893     Ti903    10.01   .     S
Er894     Ce899    10.0   .     S
Er894     Ti901    10.01   .     S
Er895     Er896    9.996   .     S
Er895     Ce898    10.0   .     S
Er896     Ce897    10.0   .     S
Ce897     Ce898    9.994   .     S
Ce897     Ce899    9.999   1_554     S
Ce898     Ce900    9.999   1_554     S
Ce899     Ce900    9.994   .     S
Ce899     S902    9.999   .     S
Ce899     Ce897    9.999   1_556     S
Ce900     S904    9.999   .     S
Ce900     Ce898    9.999   1_556     S
Ti901     Ti903    9.996   .     S
Ti901     Ti905    10.013   .     S
Ti901     S902    9.985   .     S
S902     S904    9.996   .     S
S902     S906    10.001   .     S
Ti903     Ti909    10.013   .     S
Ti903     S904    9.985   .     S
S904     S910    10.001   .     S
Ti905     Ti907    9.996   .     S
Ti905     S906    9.985   .     S
S906     S908    9.996   .     S
Ti907     Ti911    10.013   .     S
Ti907     S908    9.985   .     S
S908     S912    10.001   .     S
Ti909     Ti911    9.996   .     S
Ti909     Er916    10.01   .     S
Ti909     S910    9.985   .     S
S910     S912    9.996   .     S
S910     Ce917    9.999   .     S
Ti911     Er915    10.01   .     S
Ti911     S912    9.985   .     S
S912     Ce918    9.999   .     S
Er913     Er914    9.996   .     S
Er913     Ce920    10.0   .     S
Er913     Ti931    10.01   .     S
Er914     Ce919    10.0   .     S
Er914     Ti929    10.01   .     S
Er915     Er916    9.996   .     S
Er915     Ce918    10.0   .     S
Er916     Ce917    10.0   .     S
Ce917     Ce918    9.994   .     S
Ce917     Ce919    9.999   1_455     S
Ce918     Ce920    9.999   1_455     S
Ce919     Ce920    9.994   .     S
Ce919     S930    9.999   .     S
Ce919     Ce917    9.999   1_655     S
Ce920     S932    9.999   .     S
Ce920     Ce918    9.999   1_655     S
Er921     Er922    9.996   .     S
Er921     Ce928    10.0   .     S
Er921     Ti939    10.01   .     S
Er922     Ce927    10.0   .     S
Er922     Ti937    10.01   .     S
Er923     Er924    9.996   .     S
Er923     Ce926    10.0   .     S
Er923     Ti955    10.01   .     S
Er924     Ce925    10.0   .     S
Er924     Ti953    10.01   .     S
Ce925     Ce926    9.994   .     S
Ce925     S954    9.999   .     S
Ce925     Ce927    9.999   1_554     S
Ce926     S956    9.999   .     S
Ce926     Ce928    9.999   1_554     S
Ce927     Ce928    9.994   .     S
Ce927     S938    9.999   .     S
Ce927     Ce925    9.999   1_556     S
Ce928     S940    9.999   .     S
Ce928     Ce926    9.999   1_556     S
Ti929     Ti931    9.996   .     S
Ti929     Ti937    10.013   .     S
Ti929     S930    9.985   .     S
S930     S932    9.996   .     S
S930     S938    10.001   .     S
Ti931     Ti933    10.013   .     S
Ti931     S932    9.985   .     S
S932     S934    10.001   .     S
Ti933     Ti935    9.996   .     S
Ti933     S934    9.985   .     S
S934     S936    9.996   .     S
Ti935     Ti939    10.013   .     S
Ti935     S936    9.985   .     S
S936     S940    10.001   .     S
Ti937     Ti939    9.996   .     S
Ti937     S938    9.985   .     S
S938     S940    9.996   .     S
Ti939     S940    9.985   .     S
Er941     Er942    9.996   .     S
Er941     Ce948    10.0   .     S
Er941     Ti959    10.01   .     S
Er942     Ce947    10.0   .     S
Er942     Ti957    10.01   .     S
Er943     Er944    9.996   .     S
Er943     Ce946    10.0   .     S
Er944     Ce945    10.0   .     S
Ce945     Ce946    9.994   .     S
Ce945     Ce947    9.999   1_455     S
Ce946     Ce948    9.999   1_455     S
Ce947     Ce948    9.994   .     S
Ce947     S958    9.999   .     S
Ce947     Ce945    9.999   1_655     S
Ce948     S960    9.999   .     S
Ce948     Ce946    9.999   1_655     S
Ti949     Ti951    9.996   .     S
Ti949     Ti957    10.013   .     S
Ti949     S950    9.985   .     S
S950     S952    9.996   .     S
S950     S958    10.001   .     S
Ti951     Ti955    10.013   .     S
Ti951     S952    9.985   .     S
S952     S956    10.001   .     S
Ti953     Ti955    9.996   .     S
Ti953     Ti959    10.013   .     S
Ti953     S954    9.985   .     S
S954     S956    9.996   .     S
S954     S960    10.001   .     S
Ti955     S956    9.985   .     S
Ti957     Ti959    9.996   .     S
Ti957     S958    9.985   .     S
S958     S960    9.996   .     S
Ti959     S960    9.985   .     S
