data_uko
_audit_creation_date              2020-02-02
_audit_creation_method            'Pymatgen'
_symmetry_space_group_name_H-M    'P1'
_symmetry_Int_Tables_number       1
loop_
_symmetry_equiv_pos_as_xyz
  x,y,z
_cell_length_a                    38.9928
_cell_length_b                    38.9928
_cell_length_c                    38.9928
_cell_angle_alpha                 90.0
_cell_angle_beta                 90.0
_cell_angle_gamma                 90.0
loop_
_atom_site_label
_atom_site_type_symbol
_atom_site_fract_x
_atom_site_fract_y
_atom_site_fract_z
V1     V     0.7408   0.0392   0.8721
V2     V     0.8721   0.2408   0.9608
V3     V     0.9608   0.3721   0.7592
V4     V     0.7592   0.4608   0.6279
V5     V     0.5392   0.1279   0.7408
V6     V     0.6279   0.2592   0.5392
V7     V     0.7592   0.5392   0.8721
V8     V     0.6279   0.7408   0.9608
V9     V     0.8721   0.7592   0.5392
V10     V     0.9608   0.6279   0.7408
V11     V     0.5392   0.8721   0.7592
V12     V     0.7408   0.9608   0.6279
V13     V     0.4608   0.6279   0.7592
V14     V     0.2408   0.9608   0.8721
V15     V     0.0392   0.8721   0.7408
V16     V     0.3721   0.7592   0.9608
V17     V     0.1279   0.7408   0.5392
V18     V     0.2592   0.5392   0.6279
V19     V     0.8721   0.7408   0.0392
V20     V     0.9608   0.8721   0.2408
V21     V     0.7592   0.9608   0.3721
V22     V     0.6279   0.7592   0.4608
V23     V     0.7408   0.5392   0.1279
V24     V     0.5392   0.6279   0.2592
V25     V     0.4608   0.8721   0.2592
V26     V     0.2592   0.9608   0.1279
V27     V     0.1279   0.7592   0.0392
V28     V     0.3721   0.7408   0.4608
V29     V     0.0392   0.6279   0.2408
V30     V     0.2408   0.5392   0.3721
V31     V     0.8721   0.2592   0.4608
V32     V     0.9608   0.1279   0.2592
V33     V     0.7408   0.4608   0.3721
V34     V     0.7592   0.0392   0.1279
V35     V     0.6279   0.2408   0.0392
V36     V     0.5392   0.3721   0.2408
V37     V     0.4608   0.1279   0.2408
V38     V     0.2408   0.4608   0.1279
V39     V     0.0392   0.3721   0.2592
V40     V     0.3721   0.2592   0.0392
V41     V     0.1279   0.2408   0.4608
V42     V     0.2592   0.0392   0.3721
V43     V     0.2592   0.4608   0.8721
V44     V     0.0392   0.1279   0.7592
V45     V     0.1279   0.2592   0.9608
V46     V     0.2408   0.0392   0.6279
V47     V     0.3721   0.2408   0.5392
V48     V     0.4608   0.3721   0.7408
loop_
_geom_bond_atom_site_label_1
_geom_bond_atom_site_label_2
_geom_bond_distance
_geom_bond_site_symmetry_2
_ccdc_geom_bond_type
V1     V5    10.0   .     S
V1     V2    10.0   .     S
V1     V12    10.0   1_545     S
V1     V34    10.0   1_556     S
V2     V3    10.0   .     S
V2     V35    10.0   1_556     S
V2     V45    10.0   1_655     S
V3     V4    10.0   .     S
V3     V44    10.0   1_655     S
V3     V10    10.0   .     S
V4     V6    10.0   .     S
V4     V7    10.0   .     S
V4     V33    10.0   .     S
V5     V6    10.0   .     S
V5     V48    10.0   .     S
V5     V11    10.0   1_545     S
V6     V31    10.0   .     S
V6     V47    10.0   .     S
V7     V10    10.0   .     S
V7     V8    10.0   .     S
V7     V23    10.0   1_556     S
V8     V11    10.0   .     S
V8     V19    10.0   1_556     S
V8     V16    10.0   .     S
V9     V12    10.0   .     S
V9     V10    10.0   .     S
V9     V22    10.0   .     S
V9     V17    10.0   1_655     S
V10     V15    10.0   1_655     S
V11     V12    10.0   .     S
V11     V13    10.0   .     S
V11     V5    10.0   1_565     S
V12     V1    10.0   1_565     S
V12     V21    10.0   .     S
V13     V16    10.0   .     S
V13     V18    10.0   .     S
V13     V48    10.0   .     S
V14     V16    10.0   .     S
V14     V15    10.0   .     S
V14     V46    10.0   1_565     S
V14     V26    10.0   1_556     S
V15     V17    10.0   .     S
V15     V10    10.0   1_455     S
V15     V44    10.0   1_565     S
V16     V27    10.0   1_556     S
V17     V18    10.0   .     S
V17     V28    10.0   .     S
V17     V9    10.0   1_455     S
V18     V43    10.0   .     S
V18     V30    10.0   .     S
V19     V23    10.0   .     S
V19     V20    10.0   .     S
V19     V8    10.0   1_554     S
V19     V27    10.0   1_655     S
V20     V21    10.0   .     S
V20     V29    10.0   1_655     S
V20     V32    10.0   1_565     S
V21     V22    10.0   .     S
V21     V34    10.0   1_565     S
V22     V24    10.0   .     S
V22     V28    10.0   .     S
V23     V24    10.0   .     S
V23     V33    10.0   .     S
V23     V7    10.0   1_554     S
V24     V25    10.0   .     S
V24     V36    10.0   .     S
V25     V28    10.0   .     S
V25     V26    10.0   .     S
V25     V37    10.0   1_565     S
V26     V27    10.0   .     S
V26     V42    10.0   1_565     S
V26     V14    10.0   1_554     S
V27     V29    10.0   .     S
V27     V16    10.0   1_554     S
V27     V19    10.0   1_455     S
V28     V30    10.0   .     S
V29     V30    10.0   .     S
V29     V20    10.0   1_455     S
V29     V39    10.0   .     S
V30     V38    10.0   .     S
V31     V33    10.0   .     S
V31     V32    10.0   .     S
V31     V41    10.0   1_655     S
V32     V34    10.0   .     S
V32     V39    10.0   1_655     S
V32     V20    10.0   1_545     S
V33     V36    10.0   .     S
V34     V35    10.0   .     S
V34     V21    10.0   1_545     S
V34     V1    10.0   1_554     S
V35     V36    10.0   .     S
V35     V2    10.0   1_554     S
V35     V40    10.0   .     S
V36     V37    10.0   .     S
V37     V40    10.0   .     S
V37     V42    10.0   .     S
V37     V25    10.0   1_545     S
V38     V39    10.0   .     S
V38     V40    10.0   .     S
V38     V43    10.0   1_554     S
V39     V32    10.0   1_455     S
V39     V41    10.0   .     S
V40     V45    10.0   1_554     S
V41     V42    10.0   .     S
V41     V47    10.0   .     S
V41     V31    10.0   1_455     S
V42     V26    10.0   1_545     S
V42     V46    10.0   .     S
V43     V48    10.0   .     S
V43     V45    10.0   .     S
V43     V38    10.0   1_556     S
V44     V45    10.0   .     S
V44     V46    10.0   .     S
V44     V3    10.0   1_455     S
V44     V15    10.0   1_545     S
V45     V40    10.0   1_556     S
V45     V2    10.0   1_455     S
V46     V47    10.0   .     S
V46     V14    10.0   1_545     S
V47     V48    10.0   .     S
