data_ukr
_audit_creation_date              2020-02-02
_audit_creation_method            'Pymatgen'
_symmetry_space_group_name_H-M    'P1'
_symmetry_Int_Tables_number       1
loop_
_symmetry_equiv_pos_as_xyz
  x,y,z
_cell_length_a                    49.2435
_cell_length_b                    49.2435
_cell_length_c                    49.2435
_cell_angle_alpha                 90.0
_cell_angle_beta                 90.0
_cell_angle_gamma                 90.0
loop_
_atom_site_label
_atom_site_type_symbol
_atom_site_fract_x
_atom_site_fract_y
_atom_site_fract_z
V1     V     0.722   0.7604   0.6015
V2     V     0.7604   0.6015   0.722
V3     V     0.6015   0.722   0.7604
V4     V     0.8985   0.7396   0.778
V5     V     0.778   0.8985   0.7396
V6     V     0.7396   0.778   0.8985
V7     V     0.2604   0.222   0.1015
V8     V     0.1015   0.2604   0.222
V9     V     0.222   0.1015   0.2604
V10     V     0.2396   0.3985   0.278
V11     V     0.278   0.2396   0.3985
V12     V     0.3985   0.278   0.2396
V13     V     0.3985   0.722   0.7604
V14     V     0.278   0.7604   0.6015
V15     V     0.2396   0.6015   0.722
V16     V     0.222   0.8985   0.7396
V17     V     0.1015   0.7396   0.778
V18     V     0.2604   0.778   0.8985
V19     V     0.278   0.2396   0.6015
V20     V     0.2396   0.3985   0.722
V21     V     0.3985   0.278   0.7604
V22     V     0.1015   0.2604   0.778
V23     V     0.222   0.1015   0.7396
V24     V     0.2604   0.222   0.8985
V25     V     0.7604   0.3985   0.722
V26     V     0.6015   0.278   0.7604
V27     V     0.722   0.2396   0.6015
V28     V     0.7396   0.222   0.8985
V29     V     0.778   0.1015   0.7396
V30     V     0.8985   0.2604   0.778
V31     V     0.2396   0.6015   0.278
V32     V     0.3985   0.722   0.2396
V33     V     0.278   0.7604   0.3985
V34     V     0.2604   0.778   0.1015
V35     V     0.1015   0.7396   0.222
V36     V     0.222   0.8985   0.2604
V37     V     0.722   0.7604   0.3985
V38     V     0.7604   0.6015   0.278
V39     V     0.6015   0.722   0.2396
V40     V     0.8985   0.7396   0.222
V41     V     0.7396   0.778   0.1015
V42     V     0.778   0.8985   0.2604
V43     V     0.6015   0.278   0.2396
V44     V     0.722   0.2396   0.3985
V45     V     0.7604   0.3985   0.278
V46     V     0.778   0.1015   0.2604
V47     V     0.8985   0.2604   0.222
V48     V     0.7396   0.222   0.1015
loop_
_geom_bond_atom_site_label_1
_geom_bond_atom_site_label_2
_geom_bond_distance
_geom_bond_site_symmetry_2
_ccdc_geom_bond_type
V1     V3    10.0   .     S
V1     V2    10.0   .     S
V1     V5    10.0   .     S
V1     V37    10.0   .     S
V2     V3    10.0   .     S
V2     V4    10.0   .     S
V2     V25    10.0   .     S
V3     V6    10.0   .     S
V3     V13    10.0   .     S
V4     V5    10.0   .     S
V4     V6    10.0   .     S
V4     V17    10.0   1_655     S
V5     V6    10.0   .     S
V5     V29    10.0   1_565     S
V6     V41    10.0   1_556     S
V7     V8    10.0   .     S
V7     V9    10.0   .     S
V7     V12    10.0   .     S
V7     V24    10.0   1_554     S
V8     V9    10.0   .     S
V8     V10    10.0   .     S
V8     V47    10.0   1_455     S
V9     V11    10.0   .     S
V9     V36    10.0   1_545     S
V10     V11    10.0   .     S
V10     V12    10.0   .     S
V10     V31    10.0   .     S
V11     V12    10.0   .     S
V11     V19    10.0   .     S
V12     V43    10.0   .     S
V13     V15    10.0   .     S
V13     V14    10.0   .     S
V13     V18    10.0   .     S
V14     V15    10.0   .     S
V14     V16    10.0   .     S
V14     V33    10.0   .     S
V15     V17    10.0   .     S
V15     V20    10.0   .     S
V16     V17    10.0   .     S
V16     V18    10.0   .     S
V16     V23    10.0   1_565     S
V17     V18    10.0   .     S
V17     V4    10.0   1_455     S
V18     V34    10.0   1_556     S
V19     V21    10.0   .     S
V19     V20    10.0   .     S
V19     V23    10.0   .     S
V20     V21    10.0   .     S
V20     V22    10.0   .     S
V21     V24    10.0   .     S
V21     V26    10.0   .     S
V22     V23    10.0   .     S
V22     V24    10.0   .     S
V22     V30    10.0   1_455     S
V23     V24    10.0   .     S
V23     V16    10.0   1_545     S
V24     V7    10.0   1_556     S
V25     V27    10.0   .     S
V25     V26    10.0   .     S
V25     V30    10.0   .     S
V26     V27    10.0   .     S
V26     V28    10.0   .     S
V27     V29    10.0   .     S
V27     V44    10.0   .     S
V28     V29    10.0   .     S
V28     V30    10.0   .     S
V28     V48    10.0   1_556     S
V29     V30    10.0   .     S
V29     V5    10.0   1_545     S
V30     V22    10.0   1_655     S
V31     V33    10.0   .     S
V31     V32    10.0   .     S
V31     V35    10.0   .     S
V32     V33    10.0   .     S
V32     V34    10.0   .     S
V32     V39    10.0   .     S
V33     V36    10.0   .     S
V34     V35    10.0   .     S
V34     V36    10.0   .     S
V34     V18    10.0   1_554     S
V35     V36    10.0   .     S
V35     V40    10.0   1_455     S
V36     V9    10.0   1_565     S
V37     V39    10.0   .     S
V37     V38    10.0   .     S
V37     V42    10.0   .     S
V38     V39    10.0   .     S
V38     V40    10.0   .     S
V38     V45    10.0   .     S
V39     V41    10.0   .     S
V40     V41    10.0   .     S
V40     V42    10.0   .     S
V40     V35    10.0   1_655     S
V41     V42    10.0   .     S
V41     V6    10.0   1_554     S
V42     V46    10.0   1_565     S
V43     V45    10.0   .     S
V43     V44    10.0   .     S
V43     V48    10.0   .     S
V44     V45    10.0   .     S
V44     V46    10.0   .     S
V45     V47    10.0   .     S
V46     V48    10.0   .     S
V46     V47    10.0   .     S
V46     V42    10.0   1_545     S
V47     V8    10.0   1_655     S
V47     V48    10.0   .     S
V48     V28    10.0   1_554     S
