data_ull
_audit_creation_date              2020-02-02
_audit_creation_method            'Pymatgen'
_symmetry_space_group_name_H-M    'P1'
_symmetry_Int_Tables_number       1
loop_
_symmetry_equiv_pos_as_xyz
  x,y,z
_cell_length_a                    40.9027
_cell_length_b                    40.9027
_cell_length_c                    40.9027
_cell_angle_alpha                 90.0
_cell_angle_beta                 90.0
_cell_angle_gamma                 90.0
loop_
_atom_site_label
_atom_site_type_symbol
_atom_site_fract_x
_atom_site_fract_y
_atom_site_fract_z
V1     V     0.0395   0.6681   0.8317
V2     V     0.1681   0.5395   0.6683
V3     V     0.9605   0.8317   0.6681
V4     V     0.8319   0.6683   0.5395
V5     V     0.3317   0.4605   0.8319
V6     V     0.1683   0.3319   0.9605
V7     V     0.4605   0.3317   0.1681
V8     V     0.3319   0.1683   0.0395
V9     V     0.6683   0.8319   0.4605
V10     V     0.8317   0.9605   0.3319
V11     V     0.6681   0.0395   0.1683
V12     V     0.5395   0.1681   0.3317
V13     V     0.5395   0.3317   0.8319
V14     V     0.6681   0.1683   0.9605
V15     V     0.6683   0.4605   0.1681
V16     V     0.8317   0.3319   0.0395
V17     V     0.4605   0.1681   0.6683
V18     V     0.3319   0.0395   0.8317
V19     V     0.3317   0.8319   0.5395
V20     V     0.1683   0.9605   0.6681
V21     V     0.1681   0.6683   0.4605
V22     V     0.0395   0.8317   0.3319
V23     V     0.8319   0.5395   0.3317
V24     V     0.9605   0.6681   0.1683
V25     V     0.6681   0.9605   0.8317
V26     V     0.5395   0.8319   0.6683
V27     V     0.8317   0.0395   0.6681
V28     V     0.6683   0.1681   0.5395
V29     V     0.4605   0.6683   0.8319
V30     V     0.3319   0.8317   0.9605
V31     V     0.3317   0.5395   0.1681
V32     V     0.1683   0.6681   0.0395
V33     V     0.8319   0.3317   0.4605
V34     V     0.9605   0.1683   0.3319
V35     V     0.1681   0.4605   0.3317
V36     V     0.0395   0.3319   0.1683
V37     V     0.8317   0.6681   0.9605
V38     V     0.6683   0.5395   0.8319
V39     V     0.6681   0.8317   0.0395
V40     V     0.5395   0.6683   0.1681
V41     V     0.4605   0.8319   0.3317
V42     V     0.3319   0.9605   0.1683
V43     V     0.3317   0.1681   0.4605
V44     V     0.1683   0.0395   0.3319
V45     V     0.8319   0.4605   0.6683
V46     V     0.9605   0.3319   0.8317
V47     V     0.0395   0.1683   0.6681
V48     V     0.1681   0.3317   0.5395
loop_
_geom_bond_atom_site_label_1
_geom_bond_atom_site_label_2
_geom_bond_distance
_geom_bond_site_symmetry_2
_ccdc_geom_bond_type
V1     V2    10.0   .     S
V1     V3    10.0   1_455     S
V1     V37    10.0   1_455     S
V1     V32    10.0   1_556     S
V2     V5    10.0   .     S
V2     V48    10.0   .     S
V2     V21    10.0   .     S
V3     V4    10.0   .     S
V3     V1    10.0   1_655     S
V3     V20    10.0   1_655     S
V3     V27    10.0   1_565     S
V4     V9    10.0   .     S
V4     V23    10.0   .     S
V4     V45    10.0   .     S
V5     V6    10.0   .     S
V5     V29    10.0   .     S
V5     V13    10.0   .     S
V6     V8    10.0   1_556     S
V6     V36    10.0   1_556     S
V6     V46    10.0   1_455     S
V7     V8    10.0   .     S
V7     V12    10.0   .     S
V7     V15    10.0   .     S
V7     V31    10.0   .     S
V8     V6    10.0   1_554     S
V8     V18    10.0   1_554     S
V8     V42    10.0   1_545     S
V9     V10    10.0   .     S
V9     V26    10.0   .     S
V9     V41    10.0   .     S
V10     V11    10.0   1_565     S
V10     V34    10.0   1_565     S
V10     V22    10.0   1_655     S
V11     V10    10.0   1_545     S
V11     V12    10.0   .     S
V11     V39    10.0   1_545     S
V11     V14    10.0   1_554     S
V12     V43    10.0   .     S
V12     V28    10.0   .     S
V13     V14    10.0   .     S
V13     V17    10.0   .     S
V13     V38    10.0   .     S
V14     V16    10.0   1_556     S
V14     V11    10.0   1_556     S
V14     V25    10.0   1_545     S
V15     V16    10.0   .     S
V15     V23    10.0   .     S
V15     V40    10.0   .     S
V16     V14    10.0   1_554     S
V16     V46    10.0   1_554     S
V16     V36    10.0   1_655     S
V17     V18    10.0   .     S
V17     V28    10.0   .     S
V17     V43    10.0   .     S
V18     V8    10.0   1_556     S
V18     V20    10.0   1_545     S
V18     V30    10.0   1_545     S
V19     V20    10.0   .     S
V19     V21    10.0   .     S
V19     V41    10.0   .     S
V19     V26    10.0   .     S
V20     V3    10.0   1_455     S
V20     V18    10.0   1_565     S
V20     V47    10.0   1_565     S
V21     V22    10.0   .     S
V21     V35    10.0   .     S
V22     V24    10.0   1_455     S
V22     V10    10.0   1_455     S
V22     V44    10.0   1_565     S
V23     V24    10.0   .     S
V23     V33    10.0   .     S
V24     V22    10.0   1_655     S
V24     V32    10.0   1_655     S
V24     V37    10.0   1_554     S
V25     V26    10.0   .     S
V25     V27    10.0   1_565     S
V25     V14    10.0   1_565     S
V25     V39    10.0   1_556     S
V26     V29    10.0   .     S
V27     V28    10.0   .     S
V27     V25    10.0   1_545     S
V27     V3    10.0   1_545     S
V27     V47    10.0   1_655     S
V28     V33    10.0   .     S
V29     V30    10.0   .     S
V29     V38    10.0   .     S
V30     V18    10.0   1_565     S
V30     V32    10.0   1_556     S
V30     V42    10.0   1_556     S
V31     V32    10.0   .     S
V31     V35    10.0   .     S
V31     V40    10.0   .     S
V32     V24    10.0   1_455     S
V32     V30    10.0   1_554     S
V32     V1    10.0   1_554     S
V33     V34    10.0   .     S
V33     V45    10.0   .     S
V34     V10    10.0   1_545     S
V34     V36    10.0   1_655     S
V34     V44    10.0   1_655     S
V35     V36    10.0   .     S
V35     V48    10.0   .     S
V36     V6    10.0   1_554     S
V36     V34    10.0   1_455     S
V36     V16    10.0   1_455     S
V37     V1    10.0   1_655     S
V37     V38    10.0   .     S
V37     V39    10.0   1_556     S
V37     V24    10.0   1_556     S
V38     V45    10.0   .     S
V39     V11    10.0   1_565     S
V39     V40    10.0   .     S
V39     V37    10.0   1_554     S
V39     V25    10.0   1_554     S
V40     V41    10.0   .     S
V41     V42    10.0   .     S
V42     V30    10.0   1_554     S
V42     V44    10.0   1_565     S
V42     V8    10.0   1_565     S
V43     V44    10.0   .     S
V43     V48    10.0   .     S
V44     V34    10.0   1_455     S
V44     V42    10.0   1_545     S
V44     V22    10.0   1_545     S
V45     V46    10.0   .     S
V46     V16    10.0   1_556     S
V46     V47    10.0   1_655     S
V46     V6    10.0   1_655     S
V47     V20    10.0   1_545     S
V47     V46    10.0   1_455     S
V47     V48    10.0   .     S
V47     V27    10.0   1_455     S
