data_uma
_audit_creation_date              2020-02-02
_audit_creation_method            'Pymatgen'
_symmetry_space_group_name_H-M    'P1'
_symmetry_Int_Tables_number       1
loop_
_symmetry_equiv_pos_as_xyz
  x,y,z
_cell_length_a                    59.9653
_cell_length_b                    59.9653
_cell_length_c                    24.6022
_cell_angle_alpha                 90.0
_cell_angle_beta                 90.0
_cell_angle_gamma                 120.0
loop_
_atom_site_label
_atom_site_type_symbol
_atom_site_fract_x
_atom_site_fract_y
_atom_site_fract_z
V1     V     0.738   0.0952   0.9698
V2     V     0.7619   0.0714   0.3636
V3     V     0.9286   0.2381   0.3636
V4     V     0.9048   0.262   0.9698
V5     V     0.9048   0.6428   0.9698
V6     V     0.9286   0.6905   0.3636
V7     V     0.7619   0.6905   0.3636
V8     V     0.738   0.6428   0.9698
V9     V     0.6428   0.9048   0.0302
V10     V     0.6905   0.9286   0.6364
V11     V     0.6905   0.7619   0.6364
V12     V     0.6428   0.738   0.0302
V13     V     0.5715   0.5953   0.3031
V14     V     0.5953   0.5715   0.6969
V15     V     0.4047   0.4285   0.3031
V16     V     0.4285   0.4047   0.6969
V17     V     0.0952   0.738   0.0302
V18     V     0.0714   0.7619   0.6364
V19     V     0.262   0.9048   0.0302
V20     V     0.2381   0.9286   0.6364
V21     V     0.5953   0.0238   0.6969
V22     V     0.5715   0.9762   0.3031
V23     V     0.4047   0.9762   0.3031
V24     V     0.4285   0.0238   0.6969
V25     V     0.3572   0.0952   0.9698
V26     V     0.3095   0.0714   0.3636
V27     V     0.3095   0.2381   0.3636
V28     V     0.3572   0.262   0.9698
V29     V     0.0952   0.3572   0.0302
V30     V     0.0714   0.3095   0.6364
V31     V     0.2381   0.3095   0.6364
V32     V     0.262   0.3572   0.0302
V33     V     0.9762   0.4047   0.6969
V34     V     0.0238   0.4285   0.3031
V35     V     0.0238   0.5953   0.3031
V36     V     0.9762   0.5715   0.6969
loop_
_geom_bond_atom_site_label_1
_geom_bond_atom_site_label_2
_geom_bond_distance
_geom_bond_site_symmetry_2
_ccdc_geom_bond_type
V1     V21    10.0   .     S
V1     V2    10.0   1_556     S
V1     V4    10.0   .     S
V1     V9    10.0   1_546     S
V2     V10    10.0   1_545     S
V2     V1    10.0   1_554     S
V2     V3    10.0   .     S
V2     V22    10.0   1_545     S
V3     V30    10.0   1_655     S
V3     V4    10.0   1_554     S
V3     V34    10.0   1_655     S
V4     V33    10.0   .     S
V4     V3    10.0   1_556     S
V4     V29    10.0   1_656     S
V5     V36    10.0   .     S
V5     V6    10.0   1_556     S
V5     V8    10.0   .     S
V5     V17    10.0   1_656     S
V6     V18    10.0   1_655     S
V6     V5    10.0   1_554     S
V6     V7    10.0   .     S
V6     V35    10.0   1_655     S
V7     V11    10.0   .     S
V7     V8    10.0   1_554     S
V7     V13    10.0   .     S
V8     V14    10.0   .     S
V8     V7    10.0   1_556     S
V8     V12    10.0   1_556     S
V9     V22    10.0   .     S
V9     V10    10.0   1_554     S
V9     V12    10.0   .     S
V9     V1    10.0   1_564     S
V10     V2    10.0   1_565     S
V10     V9    10.0   1_556     S
V10     V11    10.0   .     S
V10     V21    10.0   1_565     S
V11     V12    10.0   1_556     S
V11     V14    10.0   .     S
V12     V13    10.0   .     S
V12     V11    10.0   1_554     S
V12     V8    10.0   1_554     S
V13     V14    10.0   .     S
V13     V15    10.0   .     S
V14     V16    10.0   .     S
V15     V32    10.0   .     S
V15     V16    10.0   .     S
V15     V27    10.0   .     S
V16     V28    10.0   .     S
V16     V31    10.0   .     S
V17     V35    10.0   .     S
V17     V18    10.0   1_554     S
V17     V19    10.0   .     S
V17     V5    10.0   1_454     S
V18     V6    10.0   1_455     S
V18     V17    10.0   1_556     S
V18     V20    10.0   .     S
V18     V36    10.0   1_455     S
V19     V23    10.0   .     S
V19     V20    10.0   1_554     S
V19     V25    10.0   1_564     S
V20     V26    10.0   1_565     S
V20     V19    10.0   1_556     S
V20     V24    10.0   1_565     S
V21     V22    10.0   1_545     S
V21     V24    10.0   .     S
V21     V10    10.0   1_545     S
V22     V2    10.0   1_565     S
V22     V21    10.0   1_565     S
V22     V23    10.0   .     S
V23     V24    10.0   1_565     S
V23     V26    10.0   1_565     S
V24     V25    10.0   .     S
V24     V23    10.0   1_545     S
V24     V20    10.0   1_545     S
V25     V19    10.0   1_546     S
V25     V26    10.0   1_556     S
V25     V28    10.0   .     S
V26     V20    10.0   1_545     S
V26     V25    10.0   1_554     S
V26     V27    10.0   .     S
V26     V23    10.0   1_545     S
V27     V31    10.0   .     S
V27     V28    10.0   1_554     S
V28     V27    10.0   1_556     S
V28     V32    10.0   1_556     S
V29     V34    10.0   .     S
V29     V30    10.0   1_554     S
V29     V32    10.0   .     S
V29     V4    10.0   1_454     S
V30     V3    10.0   1_455     S
V30     V29    10.0   1_556     S
V30     V31    10.0   .     S
V30     V33    10.0   1_455     S
V31     V32    10.0   1_556     S
V32     V31    10.0   1_554     S
V32     V28    10.0   1_554     S
V33     V34    10.0   1_655     S
V33     V36    10.0   .     S
V33     V30    10.0   1_655     S
V34     V3    10.0   1_455     S
V34     V33    10.0   1_455     S
V34     V35    10.0   .     S
V35     V6    10.0   1_455     S
V35     V36    10.0   1_455     S
V36     V18    10.0   1_655     S
V36     V35    10.0   1_655     S
