data_umr
_audit_creation_date              2020-02-02
_audit_creation_method            'Pymatgen'
_symmetry_space_group_name_H-M    'P1'
_symmetry_Int_Tables_number       1
loop_
_symmetry_equiv_pos_as_xyz
  x,y,z
_cell_length_a                    57.9146
_cell_length_b                    57.9146
_cell_length_c                    16.9037
_cell_angle_alpha                 90.0
_cell_angle_beta                 90.0
_cell_angle_gamma                 90.0
loop_
_atom_site_label
_atom_site_type_symbol
_atom_site_fract_x
_atom_site_fract_y
_atom_site_fract_z
V1     V     0.8337   0.2039   0.0727
V2     V     0.8337   0.2961   0.5726
V3     V     0.6663   0.2039   0.9274
V4     V     0.6663   0.2961   0.4274
V5     V     0.9539   0.9163   0.3226
V6     V     0.0461   0.9163   0.8226
V7     V     0.9539   0.0837   0.1774
V8     V     0.0461   0.0837   0.6774
V9     V     0.9539   0.4163   0.6774
V10     V     0.0461   0.4163   0.1773
V11     V     0.9539   0.5837   0.8226
V12     V     0.0461   0.5837   0.3227
V13     V     0.8337   0.7961   0.4274
V14     V     0.8337   0.7039   0.9274
V15     V     0.6663   0.7961   0.5726
V16     V     0.6663   0.7039   0.0727
V17     V     0.3337   0.7961   0.0727
V18     V     0.3337   0.7039   0.5726
V19     V     0.1663   0.7961   0.9274
V20     V     0.1663   0.7039   0.4274
V21     V     0.3337   0.2039   0.4274
V22     V     0.3337   0.2961   0.9274
V23     V     0.1663   0.2039   0.5726
V24     V     0.1663   0.2961   0.0727
V25     V     0.5461   0.5837   0.1774
V26     V     0.4539   0.5837   0.6774
V27     V     0.5461   0.4163   0.3226
V28     V     0.4539   0.4163   0.8226
V29     V     0.5461   0.9163   0.6774
V30     V     0.4539   0.9163   0.1774
V31     V     0.4539   0.0837   0.3226
V32     V     0.5461   0.0837   0.8226
loop_
_geom_bond_atom_site_label_1
_geom_bond_atom_site_label_2
_geom_bond_distance
_geom_bond_site_symmetry_2
_ccdc_geom_bond_type
V1     V2    10.0   .     S
V1     V2    10.0   1_554     S
V1     V3    10.0   1_554     S
V1     V7    10.0   .     S
V2     V1    10.0   1_556     S
V2     V4    10.0   .     S
V2     V9    10.0   .     S
V3     V4    10.0   1_556     S
V3     V4    10.0   .     S
V3     V1    10.0   1_556     S
V3     V32    10.0   .     S
V4     V3    10.0   1_554     S
V4     V27    10.0   .     S
V5     V6    10.0   1_654     S
V5     V6    10.0   1_655     S
V5     V7    10.0   1_565     S
V5     V13    10.0   .     S
V6     V5    10.0   1_456     S
V6     V5    10.0   1_455     S
V6     V8    10.0   1_565     S
V6     V19    10.0   .     S
V7     V8    10.0   1_655     S
V7     V8    10.0   1_654     S
V7     V5    10.0   1_545     S
V8     V7    10.0   1_455     S
V8     V7    10.0   1_456     S
V8     V6    10.0   1_545     S
V8     V23    10.0   .     S
V9     V10    10.0   1_656     S
V9     V10    10.0   1_655     S
V9     V11    10.0   .     S
V10     V9    10.0   1_454     S
V10     V9    10.0   1_455     S
V10     V12    10.0   .     S
V10     V24    10.0   .     S
V11     V12    10.0   1_655     S
V11     V12    10.0   1_656     S
V11     V14    10.0   .     S
V12     V11    10.0   1_455     S
V12     V11    10.0   1_454     S
V12     V20    10.0   .     S
V13     V14    10.0   1_554     S
V13     V14    10.0   .     S
V13     V15    10.0   .     S
V14     V13    10.0   1_556     S
V14     V16    10.0   1_556     S
V15     V16    10.0   1_556     S
V15     V16    10.0   .     S
V15     V29    10.0   .     S
V16     V15    10.0   1_554     S
V16     V14    10.0   1_554     S
V16     V25    10.0   .     S
V17     V18    10.0   .     S
V17     V18    10.0   1_554     S
V17     V19    10.0   1_554     S
V17     V30    10.0   .     S
V18     V17    10.0   1_556     S
V18     V20    10.0   .     S
V18     V26    10.0   .     S
V19     V20    10.0   .     S
V19     V20    10.0   1_556     S
V19     V17    10.0   1_556     S
V20     V19    10.0   1_554     S
V21     V22    10.0   1_554     S
V21     V22    10.0   .     S
V21     V23    10.0   .     S
V21     V31    10.0   .     S
V22     V21    10.0   1_556     S
V22     V24    10.0   1_556     S
V22     V28    10.0   .     S
V23     V24    10.0   1_556     S
V23     V24    10.0   .     S
V24     V23    10.0   1_554     S
V24     V22    10.0   1_554     S
V25     V26    10.0   1_554     S
V25     V26    10.0   .     S
V25     V27    10.0   .     S
V26     V25    10.0   1_556     S
V26     V28    10.0   .     S
V27     V28    10.0   .     S
V27     V28    10.0   1_554     S
V28     V27    10.0   1_556     S
V29     V30    10.0   1_556     S
V29     V30    10.0   .     S
V29     V32    10.0   1_565     S
V30     V29    10.0   1_554     S
V30     V31    10.0   1_565     S
V31     V32    10.0   .     S
V31     V32    10.0   1_554     S
V31     V30    10.0   1_545     S
V32     V31    10.0   1_556     S
V32     V29    10.0   1_545     S
