data_unr
_audit_creation_date              2020-02-02
_audit_creation_method            'Pymatgen'
_symmetry_space_group_name_H-M    'P1'
_symmetry_Int_Tables_number       1
loop_
_symmetry_equiv_pos_as_xyz
  x,y,z
_cell_length_a                    34.0453
_cell_length_b                    34.0453
_cell_length_c                    86.8757
_cell_angle_alpha                 90.0
_cell_angle_beta                 90.0
_cell_angle_gamma                 120.0
loop_
_atom_site_label
_atom_site_type_symbol
_atom_site_fract_x
_atom_site_fract_y
_atom_site_fract_z
V1     V     0.1178   0.1944   0.3014
V2     V     0.2156   0.4723   0.3653
V3     V     0.2567   0.7844   0.3653
V4     V     0.0766   0.8822   0.3014
V5     V     0.5277   0.7433   0.3653
V6     V     0.8056   0.9234   0.3014
V7     V     0.1944   0.1178   0.1986
V8     V     0.4723   0.2156   0.1347
V9     V     0.9234   0.8056   0.1986
V10     V     0.7433   0.5277   0.1347
V11     V     0.7844   0.2567   0.1347
V12     V     0.8822   0.0766   0.1986
V13     V     0.139   0.5489   0.468
V14     V     0.861   0.4511   0.532
V15     V     0.4511   0.5901   0.468
V16     V     0.5489   0.4099   0.532
V17     V     0.4099   0.861   0.468
V18     V     0.5901   0.139   0.532
V19     V     0.139   0.5901   0.968
V20     V     0.861   0.4099   0.032
V21     V     0.4511   0.861   0.968
V22     V     0.5489   0.139   0.032
V23     V     0.4099   0.5489   0.968
V24     V     0.5901   0.4511   0.032
V25     V     0.1944   0.0766   0.6986
V26     V     0.4723   0.2567   0.6347
V27     V     0.7844   0.5277   0.6347
V28     V     0.8822   0.8056   0.6986
V29     V     0.7433   0.2156   0.6347
V30     V     0.9234   0.1178   0.6986
V31     V     0.2156   0.7433   0.8653
V32     V     0.1178   0.9234   0.8014
V33     V     0.8056   0.8822   0.8014
V34     V     0.5277   0.7844   0.8653
V35     V     0.0766   0.1944   0.8014
V36     V     0.2567   0.4723   0.8653
loop_
_geom_bond_atom_site_label_1
_geom_bond_atom_site_label_2
_geom_bond_distance
_geom_bond_site_symmetry_2
_ccdc_geom_bond_type
V1     V2    10.0   .     S
V1     V4    10.0   1_545     S
V1     V6    10.0   1_445     S
V1     V7    10.001   .     S
V2     V3    10.0   .     S
V2     V5    10.0   .     S
V2     V13    10.001   .     S
V3     V4    10.0   .     S
V3     V5    10.0   .     S
V3     V17    10.001   .     S
V4     V1    10.0   1_565     S
V4     V6    10.0   1_455     S
V4     V9    10.001   1_455     S
V5     V6    10.0   .     S
V5     V15    10.001   .     S
V6     V4    10.0   1_655     S
V6     V1    10.0   1_665     S
V6     V12    10.001   1_565     S
V7     V8    10.0   .     S
V7     V12    10.0   1_455     S
V7     V9    10.0   1_445     S
V8     V11    10.0   .     S
V8     V10    10.0   .     S
V8     V22    10.001   .     S
V9     V10    10.0   .     S
V9     V7    10.0   1_665     S
V9     V12    10.0   1_565     S
V9     V4    10.001   1_655     S
V10     V11    10.0   .     S
V10     V24    10.001   .     S
V11     V12    10.0   .     S
V11     V20    10.001   .     S
V12     V6    10.001   1_545     S
V12     V7    10.0   1_655     S
V12     V9    10.0   1_545     S
V13     V14    10.0   1_455     S
V13     V15    10.0   .     S
V13     V17    10.0   .     S
V14     V13    10.0   1_655     S
V14     V16    10.0   .     S
V14     V18    10.0   .     S
V14     V27    10.001   .     S
V15     V16    10.0   .     S
V15     V17    10.0   .     S
V16     V18    10.0   .     S
V16     V26    10.001   .     S
V17     V18    10.0   1_565     S
V18     V17    10.0   1_545     S
V18     V29    10.001   .     S
V19     V20    10.0   1_456     S
V19     V21    10.0   .     S
V19     V23    10.0   .     S
V19     V31    10.001   .     S
V20     V19    10.0   1_654     S
V20     V22    10.0   .     S
V20     V24    10.0   .     S
V21     V22    10.0   1_566     S
V21     V23    10.0   .     S
V21     V34    10.001   .     S
V22     V21    10.0   1_544     S
V22     V24    10.0   .     S
V23     V24    10.0   1_556     S
V23     V36    10.001   .     S
V24     V23    10.0   1_554     S
V25     V26    10.0   .     S
V25     V28    10.0   1_445     S
V25     V30    10.0   1_455     S
V25     V32    10.001   1_545     S
V26     V27    10.0   .     S
V26     V29    10.0   .     S
V27     V28    10.0   .     S
V27     V29    10.0   .     S
V28     V25    10.0   1_665     S
V28     V30    10.0   1_565     S
V28     V33    10.001   .     S
V29     V30    10.0   .     S
V30     V28    10.0   1_545     S
V30     V25    10.0   1_655     S
V30     V35    10.001   1_655     S
V31     V32    10.0   .     S
V31     V36    10.0   .     S
V31     V34    10.0   .     S
V32     V35    10.0   1_565     S
V32     V33    10.0   1_455     S
V32     V25    10.001   1_565     S
V33     V34    10.0   .     S
V33     V32    10.0   1_655     S
V33     V35    10.0   1_665     S
V34     V36    10.0   .     S
V35     V32    10.0   1_545     S
V35     V36    10.0   .     S
V35     V33    10.0   1_445     S
V35     V30    10.001   1_455     S
