data_unv
_audit_creation_date              2020-02-02
_audit_creation_method            'Pymatgen'
_symmetry_space_group_name_H-M    'P1'
_symmetry_Int_Tables_number       1
loop_
_symmetry_equiv_pos_as_xyz
  x,y,z
_cell_length_a                    33.6073
_cell_length_b                    33.6073
_cell_length_c                    33.6073
_cell_angle_alpha                 90.0
_cell_angle_beta                 90.0
_cell_angle_gamma                 90.0
loop_
_atom_site_label
_atom_site_type_symbol
_atom_site_fract_x
_atom_site_fract_y
_atom_site_fract_z
V1     V     0.3589   0.9936   0.3986
V2     V     0.4936   0.1014   0.6411
V3     V     0.6014   0.8589   0.5064
V4     V     0.6014   0.1411   0.9936
V5     V     0.3589   0.0064   0.1014
V6     V     0.4936   0.8986   0.8589
V7     V     0.8986   0.1411   0.0064
V8     V     0.0064   0.8986   0.1411
V9     V     0.1411   0.0064   0.8986
V10     V     0.9936   0.6014   0.1411
V11     V     0.1014   0.3589   0.0064
V12     V     0.8589   0.4936   0.8986
V13     V     0.3986   0.3589   0.9936
V14     V     0.6411   0.4936   0.1014
V15     V     0.5064   0.6014   0.8589
V16     V     0.5064   0.3986   0.6411
V17     V     0.3986   0.6411   0.5064
V18     V     0.6411   0.5064   0.3986
V19     V     0.9936   0.3986   0.3589
V20     V     0.1014   0.6411   0.4936
V21     V     0.8589   0.5064   0.6014
V22     V     0.1411   0.9936   0.6014
V23     V     0.0064   0.1014   0.3589
V24     V     0.8986   0.8589   0.4936
loop_
_geom_bond_atom_site_label_1
_geom_bond_atom_site_label_2
_geom_bond_distance
_geom_bond_site_symmetry_2
_ccdc_geom_bond_type
V1     V3    10.0   .     S
V1     V2    10.0   1_565     S
V1     V5    10.0   1_565     S
V1     V22    10.0   .     S
V2     V1    10.0   1_545     S
V2     V3    10.0   1_545     S
V2     V16    10.0   .     S
V2     V6    10.0   1_545     S
V3     V2    10.0   1_565     S
V3     V24    10.0   .     S
V3     V17    10.0   .     S
V4     V6    10.0   1_545     S
V4     V5    10.0   1_556     S
V4     V7    10.0   1_556     S
V4     V13    10.0   .     S
V5     V4    10.0   1_554     S
V5     V6    10.0   1_544     S
V5     V1    10.0   1_545     S
V5     V9    10.0   1_554     S
V6     V4    10.0   1_565     S
V6     V5    10.0   1_566     S
V6     V15    10.0   .     S
V6     V2    10.0   1_565     S
V7     V4    10.0   1_554     S
V7     V8    10.0   1_645     S
V7     V9    10.0   1_654     S
V7     V11    10.0   1_655     S
V8     V7    10.0   1_465     S
V8     V9    10.0   1_564     S
V8     V10    10.0   1_455     S
V8     V23    10.0   1_565     S
V9     V8    10.0   1_546     S
V9     V7    10.0   1_456     S
V9     V22    10.0   1_545     S
V9     V5    10.0   1_556     S
V10     V12    10.0   1_554     S
V10     V11    10.0   1_655     S
V10     V8    10.0   1_655     S
V10     V19    10.0   .     S
V11     V10    10.0   1_455     S
V11     V12    10.0   1_454     S
V11     V13    10.0   1_554     S
V11     V7    10.0   1_455     S
V12     V10    10.0   1_556     S
V12     V11    10.0   1_656     S
V12     V21    10.0   .     S
V12     V14    10.0   1_556     S
V13     V15    10.0   .     S
V13     V14    10.0   1_556     S
V13     V11    10.0   1_556     S
V14     V13    10.0   1_554     S
V14     V15    10.0   1_554     S
V14     V18    10.0   .     S
V14     V12    10.0   1_554     S
V15     V14    10.0   1_556     S
V15     V16    10.0   .     S
V16     V18    10.0   .     S
V16     V17    10.0   .     S
V17     V18    10.0   .     S
V17     V20    10.0   .     S
V18     V21    10.0   .     S
V19     V21    10.0   .     S
V19     V20    10.0   1_655     S
V19     V23    10.0   1_655     S
V20     V19    10.0   1_455     S
V20     V21    10.0   1_455     S
V20     V24    10.0   1_455     S
V21     V20    10.0   1_655     S
V22     V24    10.0   1_455     S
V22     V23    10.0   1_565     S
V22     V9    10.0   1_565     S
V23     V22    10.0   1_545     S
V23     V24    10.0   1_445     S
V23     V19    10.0   1_455     S
V23     V8    10.0   1_545     S
V24     V22    10.0   1_655     S
V24     V23    10.0   1_665     S
V24     V20    10.0   1_655     S
