data_uod
_audit_creation_date              2020-02-02
_audit_creation_method            'Pymatgen'
_symmetry_space_group_name_H-M    'P1'
_symmetry_Int_Tables_number       1
loop_
_symmetry_equiv_pos_as_xyz
  x,y,z
_cell_length_a                    57.8073
_cell_length_b                    17.6509
_cell_length_c                    46.7723
_cell_angle_alpha                 90.0
_cell_angle_beta                 90.0
_cell_angle_gamma                 90.0
loop_
_atom_site_label
_atom_site_type_symbol
_atom_site_fract_x
_atom_site_fract_y
_atom_site_fract_z
V1     V     0.4513   0.125   0.9253
V2     V     0.5487   0.875   0.0747
V3     V     0.4513   0.625   0.8247
V4     V     0.5487   0.875   0.6753
V5     V     0.4513   0.625   0.4253
V6     V     0.5487   0.375   0.5747
V7     V     0.4513   0.125   0.3247
V8     V     0.5487   0.375   0.1753
V9     V     0.0487   0.875   0.5747
V10     V     0.9513   0.125   0.4253
V11     V     0.9513   0.625   0.9253
V12     V     0.0487   0.375   0.0747
V13     V     0.0487   0.875   0.1753
V14     V     0.9513   0.625   0.3247
V15     V     0.9513   0.125   0.8247
V16     V     0.0487   0.375   0.6753
V17     V     0.7987   0.625   0.8247
V18     V     0.7013   0.375   0.6753
V19     V     0.7987   0.625   0.4253
V20     V     0.7013   0.875   0.5747
V21     V     0.7987   0.125   0.9253
V22     V     0.7013   0.375   0.0747
V23     V     0.7013   0.875   0.1753
V24     V     0.7987   0.125   0.3247
V25     V     0.2987   0.125   0.8247
V26     V     0.2013   0.875   0.6753
V27     V     0.2987   0.625   0.9253
V28     V     0.2013   0.875   0.0747
V29     V     0.2987   0.125   0.4253
V30     V     0.2013   0.375   0.5747
V31     V     0.2013   0.375   0.1753
V32     V     0.2987   0.625   0.3247
loop_
_geom_bond_atom_site_label_1
_geom_bond_atom_site_label_2
_geom_bond_distance
_geom_bond_site_symmetry_2
_ccdc_geom_bond_type
V1     V2    10.0   1_546     S
V1     V3    10.0   .     S
V1     V3    10.0   1_545     S
V1     V25    10.001   .     S
V2     V1    10.0   1_564     S
V2     V8    10.0   .     S
V2     V8    10.0   1_565     S
V2     V23    10.001   .     S
V3     V4    10.0   .     S
V3     V1    10.0   1_565     S
V3     V27    10.001   .     S
V4     V6    10.0   .     S
V4     V6    10.0   1_565     S
V4     V20    10.001   .     S
V5     V6    10.0   .     S
V5     V7    10.0   1_565     S
V5     V7    10.0   .     S
V5     V32    10.001   .     S
V6     V4    10.0   1_545     S
V6     V18    10.001   .     S
V7     V5    10.0   1_545     S
V7     V8    10.0   .     S
V7     V29    10.001   .     S
V8     V2    10.0   1_545     S
V8     V22    10.001   .     S
V9     V10    10.0   1_465     S
V9     V16    10.0   .     S
V9     V16    10.0   1_565     S
V9     V26    10.001   .     S
V10     V9    10.0   1_645     S
V10     V14    10.0   1_545     S
V10     V14    10.0   .     S
V10     V24    10.001   .     S
V11     V12    10.0   1_656     S
V11     V15    10.0   1_565     S
V11     V15    10.0   .     S
V11     V17    10.001   .     S
V12     V11    10.0   1_454     S
V12     V13    10.0   .     S
V12     V13    10.0   1_545     S
V12     V31    10.001   .     S
V13     V14    10.0   1_455     S
V13     V12    10.0   1_565     S
V13     V28    10.001   .     S
V14     V13    10.0   1_655     S
V14     V10    10.0   1_565     S
V14     V19    10.001   .     S
V15     V11    10.0   1_545     S
V15     V16    10.0   1_655     S
V15     V21    10.001   .     S
V16     V15    10.0   1_455     S
V16     V9    10.0   1_545     S
V16     V30    10.001   .     S
V17     V18    10.0   .     S
V17     V21    10.0   .     S
V17     V21    10.0   1_565     S
V18     V20    10.0   1_545     S
V18     V20    10.0   .     S
V19     V20    10.0   .     S
V19     V24    10.0   1_565     S
V19     V24    10.0   .     S
V20     V18    10.0   1_565     S
V21     V22    10.0   1_556     S
V21     V17    10.0   1_545     S
V22     V21    10.0   1_554     S
V22     V23    10.0   .     S
V22     V23    10.0   1_545     S
V23     V24    10.0   1_565     S
V23     V22    10.0   1_565     S
V24     V19    10.0   1_545     S
V24     V23    10.0   1_545     S
V25     V26    10.0   1_545     S
V25     V27    10.0   1_545     S
V25     V27    10.0   .     S
V26     V25    10.0   1_565     S
V26     V30    10.0   .     S
V26     V30    10.0   1_565     S
V27     V28    10.0   1_556     S
V27     V25    10.0   1_565     S
V28     V27    10.0   1_554     S
V28     V31    10.0   .     S
V28     V31    10.0   1_565     S
V29     V30    10.0   .     S
V29     V32    10.0   1_545     S
V29     V32    10.0   .     S
V30     V26    10.0   1_545     S
V31     V32    10.0   .     S
V31     V28    10.0   1_545     S
V32     V29    10.0   1_565     S
