data_urma
_audit_creation_date              2020-02-02
_audit_creation_method            'Pymatgen'
_symmetry_space_group_name_H-M    'P1'
_symmetry_Int_Tables_number       1
loop_
_symmetry_equiv_pos_as_xyz
  x,y,z
_cell_length_a                    125.5568
_cell_length_b                    125.5568
_cell_length_c                    125.5568
_cell_angle_alpha                 90.0
_cell_angle_beta                 90.0
_cell_angle_gamma                 90.0
loop_
_atom_site_label
_atom_site_type_symbol
_atom_site_fract_x
_atom_site_fract_y
_atom_site_fract_z
V1     V     0.8392   0.0727   0.0727
V2     V     0.0727   0.8392   0.0727
V3     V     0.0727   0.0727   0.8392
V4     V     0.0727   0.1608   0.0727
V5     V     0.1608   0.0727   0.0727
V6     V     0.0727   0.0727   0.1608
V7     V     0.9274   0.8392   0.0727
V8     V     0.0727   0.8392   0.9274
V9     V     0.8392   0.0727   0.9274
V10     V     0.8392   0.9274   0.0727
V11     V     0.9274   0.0727   0.8392
V12     V     0.0727   0.9274   0.8392
V13     V     0.1608   0.9274   0.0727
V14     V     0.1608   0.0727   0.9274
V15     V     0.0727   0.1608   0.9274
V16     V     0.9274   0.1608   0.0727
V17     V     0.0727   0.9274   0.1608
V18     V     0.9274   0.0727   0.1608
V19     V     0.9274   0.9274   0.8392
V20     V     0.8392   0.9274   0.9274
V21     V     0.9274   0.8392   0.9274
V22     V     0.9274   0.9274   0.1608
V23     V     0.9274   0.1608   0.9274
V24     V     0.1608   0.9274   0.9274
Er25     Er     0.0961   0.9602   0.0398
Er26     Er     0.0961   0.9602   0.9602
Er27     Er     0.0961   0.0398   0.9602
Er28     Er     0.0961   0.0398   0.0398
Er29     Er     0.9602   0.9039   0.0398
Er30     Er     0.9602   0.9039   0.9602
Er31     Er     0.0398   0.9039   0.9602
Er32     Er     0.0398   0.9039   0.0398
Er33     Er     0.9602   0.0398   0.9039
Er34     Er     0.9602   0.9602   0.9039
Er35     Er     0.0398   0.9602   0.9039
Er36     Er     0.0398   0.0398   0.9039
Er37     Er     0.9039   0.9602   0.0398
Er38     Er     0.9039   0.9602   0.9602
Er39     Er     0.9039   0.0398   0.9602
Er40     Er     0.9039   0.0398   0.0398
Er41     Er     0.9602   0.0961   0.9602
Er42     Er     0.9602   0.0961   0.0398
Er43     Er     0.0398   0.0961   0.9602
Er44     Er     0.0398   0.0961   0.0398
Er45     Er     0.9602   0.9602   0.0961
Er46     Er     0.9602   0.0398   0.0961
Er47     Er     0.0398   0.9602   0.0961
Er48     Er     0.0398   0.0398   0.0961
V49     V     0.4274   0.3392   0.0727
V50     V     0.3392   0.4274   0.0727
V51     V     0.4274   0.4274   0.8392
V52     V     0.3392   0.5726   0.0727
V53     V     0.5726   0.3392   0.0727
V54     V     0.3392   0.4274   0.9274
V55     V     0.4274   0.3392   0.9274
V56     V     0.4274   0.5726   0.8392
V57     V     0.5726   0.4274   0.8392
V58     V     0.4274   0.4274   0.1608
V59     V     0.5726   0.5726   0.8392
V60     V     0.5726   0.4274   0.1608
V61     V     0.4274   0.5726   0.1608
V62     V     0.5726   0.3392   0.9274
V63     V     0.3392   0.5726   0.9274
V64     V     0.5726   0.5726   0.1608
V65     V     0.6609   0.4274   0.0727
V66     V     0.4274   0.6609   0.0727
V67     V     0.5726   0.6609   0.0727
V68     V     0.6609   0.5726   0.0727
V69     V     0.4274   0.6609   0.9274
V70     V     0.6609   0.4274   0.9274
V71     V     0.6609   0.5726   0.9274
V72     V     0.5726   0.6609   0.9274
Er73     Er     0.5398   0.4602   0.0961
Er74     Er     0.5398   0.5398   0.0961
Er75     Er     0.4602   0.5398   0.0961
Er76     Er     0.4602   0.4602   0.0961
Er77     Er     0.4039   0.4602   0.9602
Er78     Er     0.4039   0.4602   0.0398
Er79     Er     0.4039   0.5398   0.9602
Er80     Er     0.4039   0.5398   0.0398
Er81     Er     0.4602   0.4039   0.9602
Er82     Er     0.4602   0.4039   0.0398
Er83     Er     0.5398   0.4039   0.9602
Er84     Er     0.5398   0.4039   0.0398
Er85     Er     0.5961   0.4602   0.9602
Er86     Er     0.5961   0.4602   0.0398
Er87     Er     0.5961   0.5398   0.9602
Er88     Er     0.5961   0.5398   0.0398
Er89     Er     0.5398   0.4602   0.9039
Er90     Er     0.5398   0.5398   0.9039
Er91     Er     0.4602   0.5398   0.9039
Er92     Er     0.4602   0.4602   0.9039
Er93     Er     0.4602   0.5961   0.9602
Er94     Er     0.4602   0.5961   0.0398
Er95     Er     0.5398   0.5961   0.0398
Er96     Er     0.5398   0.5961   0.9602
V97     V     0.3392   0.0727   0.4274
V98     V     0.4274   0.0727   0.3392
V99     V     0.4274   0.8392   0.4274
V100     V     0.3392   0.0727   0.5726
V101     V     0.5726   0.0727   0.3392
V102     V     0.4274   0.8392   0.5726
V103     V     0.3392   0.9274   0.4274
V104     V     0.4274   0.1608   0.4274
V105     V     0.5726   0.8392   0.4274
V106     V     0.4274   0.9274   0.3392
V107     V     0.5726   0.1608   0.4274
V108     V     0.4274   0.1608   0.5726
V109     V     0.5726   0.9274   0.3392
V110     V     0.5726   0.8392   0.5726
V111     V     0.3392   0.9274   0.5726
V112     V     0.5726   0.1608   0.5726
V113     V     0.6609   0.0727   0.4274
V114     V     0.4274   0.0727   0.6609
V115     V     0.6609   0.0727   0.5726
V116     V     0.5726   0.0727   0.6609
V117     V     0.6609   0.9274   0.4274
V118     V     0.4274   0.9274   0.6609
V119     V     0.6609   0.9274   0.5726
V120     V     0.5726   0.9274   0.6609
Er121     Er     0.5398   0.0961   0.4602
Er122     Er     0.5398   0.0961   0.5398
Er123     Er     0.4602   0.0961   0.5398
Er124     Er     0.4602   0.0961   0.4602
Er125     Er     0.5961   0.9602   0.4602
Er126     Er     0.5961   0.0398   0.4602
Er127     Er     0.5961   0.0398   0.5398
Er128     Er     0.5961   0.9602   0.5398
Er129     Er     0.4039   0.9602   0.4602
Er130     Er     0.4039   0.0398   0.4602
Er131     Er     0.4039   0.9602   0.5398
Er132     Er     0.4039   0.0398   0.5398
Er133     Er     0.4602   0.9602   0.4039
Er134     Er     0.4602   0.0398   0.4039
Er135     Er     0.5398   0.0398   0.4039
Er136     Er     0.5398   0.9602   0.4039
Er137     Er     0.5398   0.9039   0.5398
Er138     Er     0.5398   0.9039   0.4602
Er139     Er     0.4602   0.9039   0.5398
Er140     Er     0.4602   0.9039   0.4602
Er141     Er     0.4602   0.9602   0.5961
Er142     Er     0.4602   0.0398   0.5961
Er143     Er     0.5398   0.0398   0.5961
Er144     Er     0.5398   0.9602   0.5961
Ti145     Ti     0.371   0.4273   0.7829
Ti146     Ti     0.4273   0.371   0.7829
Ti147     Ti     0.4273   0.7829   0.371
Ti148     Ti     0.371   0.7829   0.4273
Ti149     Ti     0.7829   0.371   0.4273
Ti150     Ti     0.7829   0.4273   0.371
Ti151     Ti     0.7171   0.0727   0.371
Ti152     Ti     0.7171   0.129   0.4273
Ti153     Ti     0.371   0.0727   0.7171
Ti154     Ti     0.4273   0.129   0.7171
Ti155     Ti     0.0727   0.7171   0.371
Ti156     Ti     0.129   0.7171   0.4273
Ti157     Ti     0.0727   0.371   0.7171
Ti158     Ti     0.129   0.4273   0.7171
Ti159     Ti     0.371   0.7171   0.0727
Ti160     Ti     0.4273   0.7171   0.129
Ti161     Ti     0.7171   0.371   0.0727
Ti162     Ti     0.7171   0.4273   0.129
Ti163     Ti     0.129   0.0727   0.7829
Ti164     Ti     0.0727   0.129   0.7829
Ti165     Ti     0.129   0.7829   0.0727
Ti166     Ti     0.0727   0.7829   0.129
Ti167     Ti     0.7829   0.129   0.0727
Ti168     Ti     0.7829   0.0727   0.129
Ti169     Ti     0.4273   0.371   0.2171
Ti170     Ti     0.371   0.4273   0.2171
Ti171     Ti     0.371   0.2171   0.4273
Ti172     Ti     0.4273   0.2171   0.371
Ti173     Ti     0.2171   0.4273   0.371
Ti174     Ti     0.2171   0.371   0.4273
Ti175     Ti     0.371   0.7171   0.9273
Ti176     Ti     0.4273   0.7171   0.871
Ti177     Ti     0.5727   0.371   0.7829
Ti178     Ti     0.629   0.4273   0.7829
Ti179     Ti     0.7171   0.371   0.9273
Ti180     Ti     0.7171   0.4273   0.871
Ti181     Ti     0.371   0.5727   0.7829
Ti182     Ti     0.4273   0.629   0.7829
Ti183     Ti     0.7171   0.9273   0.371
Ti184     Ti     0.7171   0.871   0.4273
Ti185     Ti     0.371   0.7829   0.5727
Ti186     Ti     0.4273   0.7829   0.629
Ti187     Ti     0.5727   0.7829   0.371
Ti188     Ti     0.629   0.7829   0.4273
Ti189     Ti     0.371   0.9273   0.7171
Ti190     Ti     0.4273   0.871   0.7171
Ti191     Ti     0.7829   0.5727   0.371
Ti192     Ti     0.7829   0.629   0.4273
Ti193     Ti     0.9273   0.371   0.7171
Ti194     Ti     0.871   0.4273   0.7171
Ti195     Ti     0.9273   0.7171   0.371
Ti196     Ti     0.871   0.7171   0.4273
Ti197     Ti     0.7829   0.371   0.5727
Ti198     Ti     0.7829   0.4273   0.629
Ti199     Ti     0.7171   0.5727   0.129
Ti200     Ti     0.7171   0.629   0.0727
Ti201     Ti     0.5727   0.7171   0.129
Ti202     Ti     0.629   0.7171   0.0727
Ti203     Ti     0.5727   0.129   0.7171
Ti204     Ti     0.629   0.0727   0.7171
Ti205     Ti     0.7171   0.129   0.5727
Ti206     Ti     0.7171   0.0727   0.629
Ti207     Ti     0.129   0.7171   0.5727
Ti208     Ti     0.0727   0.7171   0.629
Ti209     Ti     0.129   0.5727   0.7171
Ti210     Ti     0.0727   0.629   0.7171
Ti211     Ti     0.7829   0.9273   0.129
Ti212     Ti     0.7829   0.871   0.0727
Ti213     Ti     0.129   0.7829   0.9273
Ti214     Ti     0.0727   0.7829   0.871
Ti215     Ti     0.9273   0.7829   0.129
Ti216     Ti     0.871   0.7829   0.0727
Ti217     Ti     0.7829   0.129   0.9273
Ti218     Ti     0.7829   0.0727   0.871
Ti219     Ti     0.129   0.9273   0.7829
Ti220     Ti     0.0727   0.871   0.7829
Ti221     Ti     0.9273   0.129   0.7829
Ti222     Ti     0.871   0.0727   0.7829
Ce223     Ce     0.5398   0.6937   0.75
Ce224     Ce     0.4602   0.6937   0.75
Ce225     Ce     0.5398   0.75   0.8063
Ce226     Ce     0.4602   0.75   0.8063
Ce227     Ce     0.5398   0.8063   0.75
Ce228     Ce     0.4602   0.8063   0.75
Ce229     Ce     0.5398   0.75   0.6937
Ce230     Ce     0.4602   0.75   0.6937
Ti231     Ti     0.629   0.7829   0.5727
Ti232     Ti     0.5727   0.7829   0.629
Ce233     Ce     0.6937   0.75   0.5398
Ce234     Ce     0.6937   0.75   0.4602
Ce235     Ce     0.75   0.8063   0.5398
Ce236     Ce     0.75   0.8063   0.4602
Ce237     Ce     0.8063   0.75   0.5398
Ce238     Ce     0.8063   0.75   0.4602
Ce239     Ce     0.75   0.6937   0.5398
Ce240     Ce     0.75   0.6937   0.4602
Ti241     Ti     0.629   0.5727   0.7829
Ti242     Ti     0.5727   0.629   0.7829
Ti243     Ti     0.7829   0.5727   0.629
Ti244     Ti     0.7829   0.629   0.5727
Ce245     Ce     0.6937   0.5398   0.75
Ce246     Ce     0.6937   0.4602   0.75
Ce247     Ce     0.75   0.5398   0.8063
Ce248     Ce     0.75   0.4602   0.8063
Ce249     Ce     0.75   0.5398   0.6937
Ce250     Ce     0.75   0.4602   0.6937
Ce251     Ce     0.8063   0.5398   0.75
Ce252     Ce     0.8063   0.4602   0.75
Ti253     Ti     0.9273   0.629   0.7171
Ti254     Ti     0.871   0.5727   0.7171
Ti255     Ti     0.9273   0.7171   0.629
Ti256     Ti     0.871   0.7171   0.5727
Ce257     Ce     0.9602   0.6937   0.75
Ce258     Ce     0.0398   0.6937   0.75
Ce259     Ce     0.9602   0.75   0.6937
Ce260     Ce     0.0398   0.75   0.6937
Ce261     Ce     0.9602   0.8063   0.75
Ce262     Ce     0.0398   0.8063   0.75
Ce263     Ce     0.9602   0.75   0.8063
Ce264     Ce     0.0398   0.75   0.8063
Ti265     Ti     0.629   0.7171   0.9273
Ti266     Ti     0.5727   0.7171   0.871
Ti267     Ti     0.7171   0.629   0.9273
Ti268     Ti     0.7171   0.5727   0.871
Ti269     Ti     0.871   0.7829   0.9273
Ti270     Ti     0.9273   0.7829   0.871
Ce271     Ce     0.75   0.6937   0.9602
Ce272     Ce     0.75   0.6937   0.0398
Ce273     Ce     0.6937   0.75   0.9602
Ce274     Ce     0.6937   0.75   0.0398
Ce275     Ce     0.8063   0.75   0.9602
Ce276     Ce     0.8063   0.75   0.0398
Ce277     Ce     0.75   0.8063   0.9602
Ce278     Ce     0.75   0.8063   0.0398
Ti279     Ti     0.7171   0.9273   0.629
Ti280     Ti     0.7171   0.871   0.5727
Ti281     Ti     0.629   0.9273   0.7171
Ti282     Ti     0.5727   0.871   0.7171
Ti283     Ti     0.7829   0.9273   0.871
Ti284     Ti     0.7829   0.871   0.9273
Ti285     Ti     0.871   0.9273   0.7829
Ti286     Ti     0.9273   0.871   0.7829
Ce287     Ce     0.6937   0.9602   0.75
Ce288     Ce     0.6937   0.0398   0.75
Ce289     Ce     0.75   0.9602   0.6937
Ce290     Ce     0.75   0.0398   0.6937
Ce291     Ce     0.75   0.9602   0.8063
Ce292     Ce     0.75   0.0398   0.8063
Ce293     Ce     0.8063   0.9602   0.75
Ce294     Ce     0.8063   0.0398   0.75
Ti295     Ti     0.371   0.2829   0.0727
Ti296     Ti     0.4273   0.2829   0.129
Ti297     Ti     0.2829   0.371   0.0727
Ti298     Ti     0.2829   0.4273   0.129
Ti299     Ti     0.2829   0.0727   0.371
Ti300     Ti     0.2829   0.129   0.4273
Ti301     Ti     0.371   0.0727   0.2829
Ti302     Ti     0.4273   0.129   0.2829
Ti303     Ti     0.0727   0.2829   0.371
Ti304     Ti     0.129   0.2829   0.4273
Ti305     Ti     0.0727   0.371   0.2829
Ti306     Ti     0.129   0.4273   0.2829
Ti307     Ti     0.129   0.2171   0.0727
Ti308     Ti     0.0727   0.2171   0.129
Ti309     Ti     0.2171   0.0727   0.129
Ti310     Ti     0.2171   0.129   0.0727
Ti311     Ti     0.0727   0.129   0.2171
Ti312     Ti     0.129   0.0727   0.2171
Ce313     Ce     0.3063   0.25   0.9602
Ce314     Ce     0.3063   0.25   0.0398
Ce315     Ce     0.25   0.3063   0.9602
Ce316     Ce     0.25   0.3063   0.0398
Ce317     Ce     0.1937   0.25   0.9602
Ce318     Ce     0.1937   0.25   0.0398
Ce319     Ce     0.25   0.1937   0.9602
Ce320     Ce     0.25   0.1937   0.0398
Ce321     Ce     0.3063   0.9602   0.25
Ce322     Ce     0.3063   0.0398   0.25
Ce323     Ce     0.25   0.9602   0.3063
Ce324     Ce     0.25   0.0398   0.3063
Ce325     Ce     0.25   0.9602   0.1937
Ce326     Ce     0.25   0.0398   0.1937
Ce327     Ce     0.1937   0.9602   0.25
Ce328     Ce     0.1937   0.0398   0.25
Ce329     Ce     0.9602   0.3063   0.25
Ce330     Ce     0.0398   0.3063   0.25
Ce331     Ce     0.9602   0.25   0.3063
Ce332     Ce     0.0398   0.25   0.3063
Ce333     Ce     0.9602   0.25   0.1937
Ce334     Ce     0.0398   0.25   0.1937
Ce335     Ce     0.9602   0.1937   0.25
Ce336     Ce     0.0398   0.1937   0.25
Ce337     Ce     0.25   0.5398   0.1937
Ce338     Ce     0.25   0.4602   0.1937
Ce339     Ce     0.1937   0.5398   0.25
Ce340     Ce     0.1937   0.4602   0.25
Ce341     Ce     0.3063   0.5398   0.25
Ce342     Ce     0.3063   0.4602   0.25
Ce343     Ce     0.25   0.5398   0.3063
Ce344     Ce     0.25   0.4602   0.3063
Ti345     Ti     0.371   0.5727   0.2171
Ti346     Ti     0.4273   0.629   0.2171
Ti347     Ti     0.5727   0.371   0.2171
Ti348     Ti     0.629   0.4273   0.2171
Ti349     Ti     0.371   0.9273   0.2829
Ti350     Ti     0.4273   0.871   0.2829
Ti351     Ti     0.9273   0.371   0.2829
Ti352     Ti     0.871   0.4273   0.2829
Ti353     Ti     0.129   0.9273   0.2171
Ti354     Ti     0.0727   0.871   0.2171
Ti355     Ti     0.9273   0.129   0.2171
Ti356     Ti     0.871   0.0727   0.2171
Ti357     Ti     0.129   0.5727   0.2829
Ti358     Ti     0.0727   0.629   0.2829
Ti359     Ti     0.5727   0.129   0.2829
Ti360     Ti     0.629   0.0727   0.2829
Ce361     Ce     0.75   0.5398   0.1937
Ce362     Ce     0.75   0.4602   0.1937
Ce363     Ce     0.6937   0.5398   0.25
Ce364     Ce     0.6937   0.4602   0.25
Ce365     Ce     0.75   0.5398   0.3063
Ce366     Ce     0.75   0.4602   0.3063
Ce367     Ce     0.8063   0.5398   0.25
Ce368     Ce     0.8063   0.4602   0.25
Ti369     Ti     0.9273   0.629   0.2829
Ti370     Ti     0.871   0.5727   0.2829
Ce371     Ce     0.9602   0.75   0.1937
Ce372     Ce     0.0398   0.75   0.1937
Ce373     Ce     0.9602   0.6937   0.25
Ce374     Ce     0.0398   0.6937   0.25
Ce375     Ce     0.9602   0.75   0.3063
Ce376     Ce     0.0398   0.75   0.3063
Ce377     Ce     0.9602   0.8063   0.25
Ce378     Ce     0.0398   0.8063   0.25
Ti379     Ti     0.5727   0.629   0.2171
Ti380     Ti     0.629   0.5727   0.2171
Ti381     Ti     0.871   0.9273   0.2171
Ti382     Ti     0.9273   0.871   0.2171
Ce383     Ce     0.5398   0.75   0.1937
Ce384     Ce     0.4602   0.75   0.1937
Ce385     Ce     0.5398   0.6937   0.25
Ce386     Ce     0.4602   0.6937   0.25
Ce387     Ce     0.5398   0.75   0.3063
Ce388     Ce     0.4602   0.75   0.3063
Ce389     Ce     0.5398   0.8063   0.25
Ce390     Ce     0.4602   0.8063   0.25
Ti391     Ti     0.629   0.9273   0.2829
Ti392     Ti     0.5727   0.871   0.2829
Ce393     Ce     0.75   0.9602   0.1937
Ce394     Ce     0.75   0.0398   0.1937
Ce395     Ce     0.8063   0.9602   0.25
Ce396     Ce     0.8063   0.0398   0.25
Ce397     Ce     0.75   0.9602   0.3063
Ce398     Ce     0.75   0.0398   0.3063
Ce399     Ce     0.6937   0.9602   0.25
Ce400     Ce     0.6937   0.0398   0.25
Ce401     Ce     0.5398   0.1937   0.25
Ce402     Ce     0.4602   0.1937   0.25
Ce403     Ce     0.5398   0.25   0.1937
Ce404     Ce     0.4602   0.25   0.1937
Ce405     Ce     0.5398   0.25   0.3063
Ce406     Ce     0.4602   0.25   0.3063
Ce407     Ce     0.5398   0.3063   0.25
Ce408     Ce     0.4602   0.3063   0.25
Ti409     Ti     0.2171   0.371   0.5727
Ti410     Ti     0.2171   0.4273   0.629
Ti411     Ti     0.2171   0.5727   0.371
Ti412     Ti     0.2171   0.629   0.4273
Ti413     Ti     0.2829   0.371   0.9273
Ti414     Ti     0.2829   0.4273   0.871
Ti415     Ti     0.2829   0.9273   0.371
Ti416     Ti     0.2829   0.871   0.4273
Ti417     Ti     0.2171   0.129   0.9273
Ti418     Ti     0.2171   0.0727   0.871
Ti419     Ti     0.2171   0.9273   0.129
Ti420     Ti     0.2171   0.871   0.0727
Ti421     Ti     0.2829   0.5727   0.129
Ti422     Ti     0.2829   0.629   0.0727
Ti423     Ti     0.2829   0.129   0.5727
Ti424     Ti     0.2829   0.0727   0.629
Ce425     Ce     0.1937   0.5398   0.75
Ce426     Ce     0.1937   0.4602   0.75
Ce427     Ce     0.25   0.5398   0.6937
Ce428     Ce     0.25   0.4602   0.6937
Ce429     Ce     0.3063   0.5398   0.75
Ce430     Ce     0.3063   0.4602   0.75
Ce431     Ce     0.25   0.5398   0.8063
Ce432     Ce     0.25   0.4602   0.8063
Ti433     Ti     0.2829   0.629   0.9273
Ti434     Ti     0.2829   0.5727   0.871
Ce435     Ce     0.1937   0.75   0.9602
Ce436     Ce     0.1937   0.75   0.0398
Ce437     Ce     0.25   0.6937   0.9602
Ce438     Ce     0.25   0.6937   0.0398
Ce439     Ce     0.3063   0.75   0.9602
Ce440     Ce     0.3063   0.75   0.0398
Ce441     Ce     0.25   0.8063   0.9602
Ce442     Ce     0.25   0.8063   0.0398
Ti443     Ti     0.2171   0.629   0.5727
Ti444     Ti     0.2171   0.5727   0.629
Ti445     Ti     0.2171   0.9273   0.871
Ti446     Ti     0.2171   0.871   0.9273
Ce447     Ce     0.1937   0.75   0.5398
Ce448     Ce     0.1937   0.75   0.4602
Ce449     Ce     0.25   0.6937   0.5398
Ce450     Ce     0.25   0.6937   0.4602
Ce451     Ce     0.3063   0.75   0.5398
Ce452     Ce     0.3063   0.75   0.4602
Ce453     Ce     0.25   0.8063   0.5398
Ce454     Ce     0.25   0.8063   0.4602
Ti455     Ti     0.2829   0.9273   0.629
Ti456     Ti     0.2829   0.871   0.5727
Ce457     Ce     0.1937   0.9602   0.75
Ce458     Ce     0.1937   0.0398   0.75
Ce459     Ce     0.25   0.9602   0.8063
Ce460     Ce     0.25   0.0398   0.8063
Ce461     Ce     0.3063   0.9602   0.75
Ce462     Ce     0.3063   0.0398   0.75
Ce463     Ce     0.25   0.9602   0.6937
Ce464     Ce     0.25   0.0398   0.6937
Ce465     Ce     0.25   0.1937   0.5398
Ce466     Ce     0.25   0.1937   0.4602
Ce467     Ce     0.1937   0.25   0.5398
Ce468     Ce     0.1937   0.25   0.4602
Ce469     Ce     0.3063   0.25   0.5398
Ce470     Ce     0.3063   0.25   0.4602
Ce471     Ce     0.25   0.3063   0.5398
Ce472     Ce     0.25   0.3063   0.4602
Ti473     Ti     0.5727   0.2171   0.371
Ti474     Ti     0.629   0.2171   0.4273
Ti475     Ti     0.371   0.2171   0.5727
Ti476     Ti     0.4273   0.2171   0.629
Ti477     Ti     0.371   0.2829   0.9273
Ti478     Ti     0.4273   0.2829   0.871
Ti479     Ti     0.9273   0.2829   0.371
Ti480     Ti     0.871   0.2829   0.4273
Ti481     Ti     0.129   0.2171   0.9273
Ti482     Ti     0.0727   0.2171   0.871
Ti483     Ti     0.9273   0.2171   0.129
Ti484     Ti     0.871   0.2171   0.0727
Ti485     Ti     0.5727   0.2829   0.129
Ti486     Ti     0.629   0.2829   0.0727
Ti487     Ti     0.129   0.2829   0.5727
Ti488     Ti     0.0727   0.2829   0.629
Ce489     Ce     0.75   0.1937   0.5398
Ce490     Ce     0.75   0.1937   0.4602
Ce491     Ce     0.6937   0.25   0.5398
Ce492     Ce     0.6937   0.25   0.4602
Ce493     Ce     0.75   0.3063   0.5398
Ce494     Ce     0.75   0.3063   0.4602
Ce495     Ce     0.8063   0.25   0.5398
Ce496     Ce     0.8063   0.25   0.4602
Ti497     Ti     0.9273   0.2829   0.629
Ti498     Ti     0.871   0.2829   0.5727
Ce499     Ce     0.9602   0.1937   0.75
Ce500     Ce     0.0398   0.1937   0.75
Ce501     Ce     0.9602   0.25   0.6937
Ce502     Ce     0.0398   0.25   0.6937
Ce503     Ce     0.9602   0.3063   0.75
Ce504     Ce     0.0398   0.3063   0.75
Ce505     Ce     0.9602   0.25   0.8063
Ce506     Ce     0.0398   0.25   0.8063
Ti507     Ti     0.5727   0.2171   0.629
Ti508     Ti     0.629   0.2171   0.5727
Ti509     Ti     0.871   0.2171   0.9273
Ti510     Ti     0.9273   0.2171   0.871
Ce511     Ce     0.5398   0.1937   0.75
Ce512     Ce     0.4602   0.1937   0.75
Ce513     Ce     0.5398   0.25   0.6937
Ce514     Ce     0.4602   0.25   0.6937
Ce515     Ce     0.5398   0.3063   0.75
Ce516     Ce     0.4602   0.3063   0.75
Ce517     Ce     0.5398   0.25   0.8063
Ce518     Ce     0.4602   0.25   0.8063
Ti519     Ti     0.629   0.2829   0.9273
Ti520     Ti     0.5727   0.2829   0.871
Ce521     Ce     0.75   0.1937   0.9602
Ce522     Ce     0.75   0.1937   0.0398
Ce523     Ce     0.6937   0.25   0.9602
Ce524     Ce     0.6937   0.25   0.0398
Ce525     Ce     0.75   0.3063   0.9602
Ce526     Ce     0.75   0.3063   0.0398
Ce527     Ce     0.8063   0.25   0.9602
Ce528     Ce     0.8063   0.25   0.0398
V529     V     0.0727   0.3392   0.4274
V530     V     0.0727   0.4274   0.3392
V531     V     0.8392   0.4274   0.4274
V532     V     0.0727   0.3392   0.5726
V533     V     0.0727   0.5726   0.3392
V534     V     0.9274   0.3392   0.4274
V535     V     0.8392   0.5726   0.4274
V536     V     0.1608   0.4274   0.4274
V537     V     0.8392   0.4274   0.5726
V538     V     0.9274   0.4274   0.3392
V539     V     0.1608   0.4274   0.5726
V540     V     0.1608   0.5726   0.4274
V541     V     0.9274   0.5726   0.3392
V542     V     0.8392   0.5726   0.5726
V543     V     0.9274   0.3392   0.5726
V544     V     0.1608   0.5726   0.5726
V545     V     0.0727   0.6609   0.4274
V546     V     0.0727   0.4274   0.6609
V547     V     0.0727   0.6609   0.5726
V548     V     0.0727   0.5726   0.6609
V549     V     0.9274   0.6609   0.4274
V550     V     0.9274   0.4274   0.6609
V551     V     0.9274   0.6609   0.5726
V552     V     0.9274   0.5726   0.6609
Er553     Er     0.0961   0.5398   0.5398
Er554     Er     0.0961   0.5398   0.4602
Er555     Er     0.0961   0.4602   0.5398
Er556     Er     0.0961   0.4602   0.4602
Er557     Er     0.9602   0.5961   0.4602
Er558     Er     0.0398   0.5961   0.4602
Er559     Er     0.9602   0.5961   0.5398
Er560     Er     0.0398   0.5961   0.5398
Er561     Er     0.9602   0.4039   0.4602
Er562     Er     0.0398   0.4039   0.4602
Er563     Er     0.0398   0.4039   0.5398
Er564     Er     0.9602   0.4039   0.5398
Er565     Er     0.9602   0.4602   0.4039
Er566     Er     0.0398   0.4602   0.4039
Er567     Er     0.0398   0.5398   0.4039
Er568     Er     0.9602   0.5398   0.4039
Er569     Er     0.9039   0.5398   0.5398
Er570     Er     0.9039   0.5398   0.4602
Er571     Er     0.9039   0.4602   0.5398
Er572     Er     0.9039   0.4602   0.4602
Er573     Er     0.9602   0.4602   0.5961
Er574     Er     0.0398   0.4602   0.5961
Er575     Er     0.0398   0.5398   0.5961
Er576     Er     0.9602   0.5398   0.5961
loop_
_geom_bond_atom_site_label_1
_geom_bond_atom_site_label_2
_geom_bond_distance
_geom_bond_site_symmetry_2
_ccdc_geom_bond_type
V1     Er40    10.0   .     S
V1     Ti167    10.0   .     S
V1     Ti168    10.0   .     S
V2     Er32    10.0   .     S
V2     Ti165    10.0   .     S
V2     Ti166    10.0   .     S
V3     Er36    10.0   .     S
V3     Ti163    10.0   .     S
V3     Ti164    10.0   .     S
V4     Er44    10.0   .     S
V4     Ti307    10.0   .     S
V4     Ti308    10.0   .     S
V5     Er28    10.0   .     S
V5     Ti309    10.0   .     S
V5     Ti310    10.0   .     S
V6     Er48    10.0   .     S
V6     Ti311    10.0   .     S
V6     Ti312    10.0   .     S
V7     Er29    10.0   .     S
V7     Ti215    10.0   .     S
V7     Ti216    10.0   .     S
V8     Er31    10.0   .     S
V8     Ti213    10.0   .     S
V8     Ti214    10.0   .     S
V9     Er39    10.0   .     S
V9     Ti217    10.0   .     S
V9     Ti218    10.0   .     S
V10     Er37    10.0   .     S
V10     Ti211    10.0   .     S
V10     Ti212    10.0   .     S
V11     Er33    10.0   .     S
V11     Ti221    10.0   .     S
V11     Ti222    10.0   .     S
V12     Er35    10.0   .     S
V12     Ti219    10.0   .     S
V12     Ti220    10.0   .     S
V13     Er25    10.0   .     S
V13     Ti419    10.0   .     S
V13     Ti420    10.0   .     S
V14     Er27    10.0   .     S
V14     Ti417    10.0   .     S
V14     Ti418    10.0   .     S
V15     Er43    10.0   .     S
V15     Ti481    10.0   .     S
V15     Ti482    10.0   .     S
V16     Er42    10.0   .     S
V16     Ti483    10.0   .     S
V16     Ti484    10.0   .     S
V17     Er47    10.0   .     S
V17     Ti353    10.0   .     S
V17     Ti354    10.0   .     S
V18     Er46    10.0   .     S
V18     Ti355    10.0   .     S
V18     Ti356    10.0   .     S
V19     Er34    10.0   .     S
V19     Ti285    10.0   .     S
V19     Ti286    10.0   .     S
V20     Er38    10.0   .     S
V20     Ti284    10.0   .     S
V20     Ti283    10.0   .     S
V21     Er30    10.0   .     S
V21     Ti270    10.0   .     S
V21     Ti269    10.0   .     S
V22     Er45    10.0   .     S
V22     Ti382    10.0   .     S
V22     Ti381    10.0   .     S
V23     Er41    10.0   .     S
V23     Ti509    10.0   .     S
V23     Ti510    10.0   .     S
V24     Er26    10.0   .     S
V24     Ti445    10.0   .     S
V24     Ti446    10.0   .     S
Er25     Er28    9.999   1_565     S
Er25     Er26    9.999   1_554     S
Er25     Er47    10.0   .     S
Er25     Er32    10.0   .     S
Er26     Er25    9.999   1_556     S
Er26     Er27    9.999   1_565     S
Er26     Er35    10.0   .     S
Er26     Er31    10.0   .     S
Er27     Er26    9.999   1_545     S
Er27     Er28    9.999   1_556     S
Er27     Er36    10.0   .     S
Er27     Er43    10.0   .     S
Er28     Er25    9.999   1_545     S
Er28     Er27    9.999   1_554     S
Er28     Er48    10.0   .     S
Er28     Er44    10.0   .     S
Er29     Er45    10.0   .     S
Er29     Er32    9.999   1_655     S
Er29     Er30    9.999   1_554     S
Er29     Er37    10.0   .     S
Er30     Er31    9.999   1_655     S
Er30     Er29    9.999   1_556     S
Er30     Er34    10.0   .     S
Er30     Er38    10.0   .     S
Er31     Er30    9.999   1_455     S
Er31     Er32    9.999   1_556     S
Er31     Er35    10.0   .     S
Er32     Er29    9.999   1_455     S
Er32     Er31    9.999   1_554     S
Er32     Er47    10.0   .     S
Er33     Er41    10.0   .     S
Er33     Er36    9.999   1_655     S
Er33     Er34    9.999   1_545     S
Er33     Er39    10.0   .     S
Er34     Er33    9.999   1_565     S
Er34     Er35    9.999   1_655     S
Er34     Er38    10.0   .     S
Er35     Er34    9.999   1_455     S
Er35     Er36    9.999   1_565     S
Er36     Er33    9.999   1_455     S
Er36     Er35    9.999   1_545     S
Er36     Er43    10.0   .     S
Er37     Er45    10.0   .     S
Er37     Er40    9.999   1_565     S
Er37     Er38    9.999   1_554     S
Er38     Er39    9.999   1_565     S
Er38     Er37    9.999   1_556     S
Er39     Er41    10.0   .     S
Er39     Er38    9.999   1_545     S
Er39     Er40    9.999   1_556     S
Er40     Er37    9.999   1_545     S
Er40     Er39    9.999   1_554     S
Er40     Er46    10.0   .     S
Er40     Er42    10.0   .     S
Er41     Er42    9.999   1_556     S
Er41     Er43    9.999   1_655     S
Er42     Er46    10.0   .     S
Er42     Er41    9.999   1_554     S
Er42     Er44    9.999   1_655     S
Er43     Er41    9.999   1_455     S
Er43     Er44    9.999   1_556     S
Er44     Er42    9.999   1_455     S
Er44     Er43    9.999   1_554     S
Er44     Er48    10.0   .     S
Er45     Er46    9.999   1_565     S
Er45     Er47    9.999   1_655     S
Er46     Er45    9.999   1_545     S
Er46     Er48    9.999   1_655     S
Er47     Er45    9.999   1_455     S
Er47     Er48    9.999   1_565     S
Er48     Er46    9.999   1_455     S
Er48     Er47    9.999   1_545     S
V49     Er82    10.0   .     S
V49     Ti295    10.0   .     S
V49     Ti296    10.0   .     S
V50     Er78    10.0   .     S
V50     Ti297    10.0   .     S
V50     Ti298    10.0   .     S
V51     Er92    10.0   .     S
V51     Ti145    10.0   .     S
V51     Ti146    10.0   .     S
V52     Er80    10.0   .     S
V52     Ti421    10.0   .     S
V52     Ti422    10.0   .     S
V53     Er84    10.0   .     S
V53     Ti485    10.0   .     S
V53     Ti486    10.0   .     S
V54     Er77    10.0   .     S
V54     Ti413    10.0   .     S
V54     Ti414    10.0   .     S
V55     Er81    10.0   .     S
V55     Ti477    10.0   .     S
V55     Ti478    10.0   .     S
V56     Er91    10.0   .     S
V56     Ti181    10.0   .     S
V56     Ti182    10.0   .     S
V57     Er89    10.0   .     S
V57     Ti177    10.0   .     S
V57     Ti178    10.0   .     S
V58     Er76    10.0   .     S
V58     Ti169    10.0   .     S
V58     Ti170    10.0   .     S
V59     Er90    10.0   .     S
V59     Ti241    10.0   .     S
V59     Ti242    10.0   .     S
V60     Er73    10.0   .     S
V60     Ti347    10.0   .     S
V60     Ti348    10.0   .     S
V61     Er75    10.0   .     S
V61     Ti345    10.0   .     S
V61     Ti346    10.0   .     S
V62     Er83    10.0   .     S
V62     Ti519    10.0   .     S
V62     Ti520    10.0   .     S
V63     Er79    10.0   .     S
V63     Ti434    10.0   .     S
V63     Ti433    10.0   .     S
V64     Er74    10.0   .     S
V64     Ti379    10.0   .     S
V64     Ti380    10.0   .     S
V65     Er86    10.0   .     S
V65     Ti161    10.0   .     S
V65     Ti162    10.0   .     S
V66     Er94    10.0   .     S
V66     Ti159    10.0   .     S
V66     Ti160    10.0   .     S
V67     Er95    10.0   .     S
V67     Ti201    10.0   .     S
V67     Ti202    10.0   .     S
V68     Er88    10.0   .     S
V68     Ti199    10.0   .     S
V68     Ti200    10.0   .     S
V69     Er93    10.0   .     S
V69     Ti175    10.0   .     S
V69     Ti176    10.0   .     S
V70     Er85    10.0   .     S
V70     Ti179    10.0   .     S
V70     Ti180    10.0   .     S
V71     Er87    10.0   .     S
V71     Ti267    10.0   .     S
V71     Ti268    10.0   .     S
V72     Er96    10.0   .     S
V72     Ti266    10.0   .     S
V72     Ti265    10.0   .     S
Er73     Er76    9.999   .     S
Er73     Er74    9.999   .     S
Er73     Er86    10.0   .     S
Er73     Er84    10.0   .     S
Er74     Er75    9.999   .     S
Er74     Er95    10.0   .     S
Er74     Er88    10.0   .     S
Er75     Er76    9.999   .     S
Er75     Er80    10.0   .     S
Er75     Er94    10.0   .     S
Er76     Er82    10.0   .     S
Er76     Er78    10.0   .     S
Er77     Er78    9.999   1_556     S
Er77     Er79    9.999   .     S
Er77     Er92    10.0   .     S
Er77     Er81    10.0   .     S
Er78     Er77    9.999   1_554     S
Er78     Er80    9.999   .     S
Er78     Er82    10.0   .     S
Er79     Er80    9.999   1_556     S
Er79     Er93    10.0   .     S
Er79     Er91    10.0   .     S
Er80     Er79    9.999   1_554     S
Er80     Er94    10.0   .     S
Er81     Er82    9.999   1_556     S
Er81     Er83    9.999   .     S
Er81     Er92    10.0   .     S
Er82     Er81    9.999   1_554     S
Er82     Er84    9.999   .     S
Er83     Er84    9.999   1_556     S
Er83     Er89    10.0   .     S
Er83     Er85    10.0   .     S
Er84     Er83    9.999   1_554     S
Er84     Er86    10.0   .     S
Er85     Er86    9.999   1_556     S
Er85     Er87    9.999   .     S
Er85     Er89    10.0   .     S
Er86     Er85    9.999   1_554     S
Er86     Er88    9.999   .     S
Er87     Er88    9.999   1_556     S
Er87     Er90    10.0   .     S
Er87     Er96    10.0   .     S
Er88     Er87    9.999   1_554     S
Er88     Er95    10.0   .     S
Er89     Er92    9.999   .     S
Er89     Er90    9.999   .     S
Er90     Er91    9.999   .     S
Er90     Er96    10.0   .     S
Er91     Er92    9.999   .     S
Er91     Er93    10.0   .     S
Er93     Er94    9.999   1_556     S
Er93     Er96    9.999   .     S
Er94     Er93    9.999   1_554     S
Er94     Er95    9.999   .     S
Er95     Er96    9.999   1_554     S
Er96     Er95    9.999   1_556     S
V97     Er130    10.0   .     S
V97     Ti299    10.0   .     S
V97     Ti300    10.0   .     S
V98     Er134    10.0   .     S
V98     Ti301    10.0   .     S
V98     Ti302    10.0   .     S
V99     Er140    10.0   .     S
V99     Ti147    10.0   .     S
V99     Ti148    10.0   .     S
V100     Er132    10.0   .     S
V100     Ti423    10.0   .     S
V100     Ti424    10.0   .     S
V101     Er135    10.0   .     S
V101     Ti359    10.0   .     S
V101     Ti360    10.0   .     S
V102     Er139    10.0   .     S
V102     Ti185    10.0   .     S
V102     Ti186    10.0   .     S
V103     Er129    10.0   .     S
V103     Ti415    10.0   .     S
V103     Ti416    10.0   .     S
V104     Er124    10.0   .     S
V104     Ti171    10.0   .     S
V104     Ti172    10.0   .     S
V105     Er138    10.0   .     S
V105     Ti187    10.0   .     S
V105     Ti188    10.0   .     S
V106     Er133    10.0   .     S
V106     Ti349    10.0   .     S
V106     Ti350    10.0   .     S
V107     Er121    10.0   .     S
V107     Ti473    10.0   .     S
V107     Ti474    10.0   .     S
V108     Er123    10.0   .     S
V108     Ti475    10.0   .     S
V108     Ti476    10.0   .     S
V109     Er136    10.0   .     S
V109     Ti392    10.0   .     S
V109     Ti391    10.0   .     S
V110     Er137    10.0   .     S
V110     Ti232    10.0   .     S
V110     Ti231    10.0   .     S
V111     Er131    10.0   .     S
V111     Ti455    10.0   .     S
V111     Ti456    10.0   .     S
V112     Er122    10.0   .     S
V112     Ti508    10.0   .     S
V112     Ti507    10.0   .     S
V113     Er126    10.0   .     S
V113     Ti151    10.0   .     S
V113     Ti152    10.0   .     S
V114     Er142    10.0   .     S
V114     Ti153    10.0   .     S
V114     Ti154    10.0   .     S
V115     Er127    10.0   .     S
V115     Ti205    10.0   .     S
V115     Ti206    10.0   .     S
V116     Er143    10.0   .     S
V116     Ti203    10.0   .     S
V116     Ti204    10.0   .     S
V117     Er125    10.0   .     S
V117     Ti183    10.0   .     S
V117     Ti184    10.0   .     S
V118     Er141    10.0   .     S
V118     Ti189    10.0   .     S
V118     Ti190    10.0   .     S
V119     Er128    10.0   .     S
V119     Ti280    10.0   .     S
V119     Ti279    10.0   .     S
V120     Er144    10.0   .     S
V120     Ti281    10.0   .     S
V120     Ti282    10.0   .     S
Er121     Er124    9.999   .     S
Er121     Er122    9.999   .     S
Er121     Er135    10.0   .     S
Er121     Er126    10.0   .     S
Er122     Er123    9.999   .     S
Er122     Er143    10.0   .     S
Er122     Er127    10.0   .     S
Er123     Er124    9.999   .     S
Er123     Er142    10.0   .     S
Er123     Er132    10.0   .     S
Er124     Er134    10.0   .     S
Er124     Er130    10.0   .     S
Er125     Er126    9.999   1_565     S
Er125     Er128    9.999   .     S
Er125     Er138    10.0   .     S
Er125     Er136    10.0   .     S
Er126     Er125    9.999   1_545     S
Er126     Er127    9.999   .     S
Er126     Er135    10.0   .     S
Er127     Er128    9.999   1_545     S
Er127     Er143    10.0   .     S
Er128     Er127    9.999   1_565     S
Er128     Er144    10.0   .     S
Er128     Er137    10.0   .     S
Er129     Er130    9.999   1_565     S
Er129     Er131    9.999   .     S
Er129     Er140    10.0   .     S
Er129     Er133    10.0   .     S
Er130     Er129    9.999   1_545     S
Er130     Er132    9.999   .     S
Er130     Er134    10.0   .     S
Er131     Er132    9.999   1_565     S
Er131     Er141    10.0   .     S
Er131     Er139    10.0   .     S
Er132     Er131    9.999   1_545     S
Er132     Er142    10.0   .     S
Er133     Er134    9.999   1_565     S
Er133     Er136    9.999   .     S
Er133     Er140    10.0   .     S
Er134     Er133    9.999   1_545     S
Er134     Er135    9.999   .     S
Er135     Er136    9.999   1_545     S
Er136     Er135    9.999   1_565     S
Er136     Er138    10.0   .     S
Er137     Er138    9.999   .     S
Er137     Er139    9.999   .     S
Er137     Er144    10.0   .     S
Er138     Er140    9.999   .     S
Er139     Er140    9.999   .     S
Er139     Er141    10.0   .     S
Er141     Er142    9.999   1_565     S
Er141     Er144    9.999   .     S
Er142     Er141    9.999   1_545     S
Er142     Er143    9.999   .     S
Er143     Er144    9.999   1_545     S
Er144     Er143    9.999   1_565     S
Ti145     Ti146    9.999   .     S
Ti145     Ce430    10.0   .     S
Ti146     Ce516    10.0   .     S
Ti147     Ti148    9.999   .     S
Ti147     Ce388    10.0   .     S
Ti148     Ce452    10.0   .     S
Ti149     Ti150    9.999   .     S
Ti149     V531    10.0   .     S
Ti149     Ce494    10.0   .     S
Ti150     V531    10.0   .     S
Ti150     Ce366    10.0   .     S
Ti151     Ti152    9.999   .     S
Ti151     Ce398    10.0   .     S
Ti152     Ce490    10.0   .     S
Ti153     Ti154    9.999   .     S
Ti153     Ce462    10.0   .     S
Ti154     Ce512    10.0   .     S
Ti155     Ti156    9.999   .     S
Ti155     V545    10.0   .     S
Ti155     Ce376    10.0   .     S
Ti156     V545    10.0   .     S
Ti156     Ce448    10.0   .     S
Ti157     Ti158    9.999   .     S
Ti157     V546    10.0   .     S
Ti157     Ce504    10.0   .     S
Ti158     V546    10.0   .     S
Ti158     Ce426    10.0   .     S
Ti159     Ti160    9.999   .     S
Ti159     Ce440    10.0   .     S
Ti160     Ce384    10.0   .     S
Ti161     Ti162    9.999   .     S
Ti161     Ce526    10.0   .     S
Ti162     Ce362    10.0   .     S
Ti163     Ti164    9.999   .     S
Ti163     Ce458    10.0   .     S
Ti164     Ce500    10.0   .     S
Ti165     Ti166    9.999   .     S
Ti165     Ce436    10.0   .     S
Ti166     Ce372    10.0   .     S
Ti167     Ti168    9.999   .     S
Ti167     Ce522    10.0   .     S
Ti168     Ce394    10.0   .     S
Ti169     Ti170    9.999   .     S
Ti169     Ce408    10.0   .     S
Ti170     Ce342    10.0   .     S
Ti171     Ti172    9.999   .     S
Ti171     Ce470    10.0   .     S
Ti172     Ce406    10.0   .     S
Ti173     Ti174    9.999   .     S
Ti173     V536    10.0   .     S
Ti173     Ce344    10.0   .     S
Ti174     V536    10.0   .     S
Ti174     Ce472    10.0   .     S
Ti175     Ti176    9.999   .     S
Ti175     Ce439    10.0   .     S
Ti176     Ce226    10.0   .     S
Ti177     Ti178    9.999   .     S
Ti177     Ce515    10.0   .     S
Ti178     Ce246    10.0   .     S
Ti179     Ti180    9.999   .     S
Ti179     Ce525    10.0   .     S
Ti180     Ce248    10.0   .     S
Ti181     Ti182    9.999   .     S
Ti181     Ce429    10.0   .     S
Ti182     Ce224    10.0   .     S
Ti183     Ti184    9.999   .     S
Ti183     Ce397    10.0   .     S
Ti184     Ce236    10.0   .     S
Ti185     Ti186    9.999   .     S
Ti185     Ce451    10.0   .     S
Ti186     Ce230    10.0   .     S
Ti187     Ti188    9.999   .     S
Ti187     Ce387    10.0   .     S
Ti188     Ce234    10.0   .     S
Ti189     Ti190    9.999   .     S
Ti189     Ce461    10.0   .     S
Ti190     Ce228    10.0   .     S
Ti191     Ti192    9.999   .     S
Ti191     V535    10.0   .     S
Ti191     Ce365    10.0   .     S
Ti192     V535    10.0   .     S
Ti192     Ce240    10.0   .     S
Ti193     Ti194    9.999   .     S
Ti193     V550    10.0   .     S
Ti193     Ce503    10.0   .     S
Ti194     V550    10.0   .     S
Ti194     Ce252    10.0   .     S
Ti195     Ti196    9.999   .     S
Ti195     V549    10.0   .     S
Ti195     Ce375    10.0   .     S
Ti196     V549    10.0   .     S
Ti196     Ce238    10.0   .     S
Ti197     Ti198    9.999   .     S
Ti197     V537    10.0   .     S
Ti197     Ce493    10.0   .     S
Ti198     V537    10.0   .     S
Ti198     Ce250    10.0   .     S
Ti199     Ti200    9.999   .     S
Ti199     Ce361    10.0   .     S
Ti200     Ce272    10.0   .     S
Ti201     Ti202    9.999   .     S
Ti201     Ce383    10.0   .     S
Ti202     Ce274    10.0   .     S
Ti203     Ti204    9.999   .     S
Ti203     Ce511    10.0   .     S
Ti204     Ce288    10.0   .     S
Ti205     Ti206    9.999   .     S
Ti205     Ce489    10.0   .     S
Ti206     Ce290    10.0   .     S
Ti207     Ti208    9.999   .     S
Ti207     V547    10.0   .     S
Ti207     Ce447    10.0   .     S
Ti208     V547    10.0   .     S
Ti208     Ce260    10.0   .     S
Ti209     Ti210    9.999   .     S
Ti209     V548    10.0   .     S
Ti209     Ce425    10.0   .     S
Ti210     V548    10.0   .     S
Ti210     Ce258    10.0   .     S
Ti211     Ti212    9.999   .     S
Ti211     Ce393    10.0   .     S
Ti212     Ce278    10.0   .     S
Ti213     Ti214    9.999   .     S
Ti213     Ce435    10.0   .     S
Ti214     Ce264    10.0   .     S
Ti215     Ti216    9.999   .     S
Ti215     Ce371    10.0   .     S
Ti216     Ce276    10.0   .     S
Ti217     Ti218    9.999   .     S
Ti217     Ce521    10.0   .     S
Ti218     Ce292    10.0   .     S
Ti219     Ti220    9.999   .     S
Ti219     Ce457    10.0   .     S
Ti220     Ce262    10.0   .     S
Ti221     Ti222    9.999   .     S
Ti221     Ce499    10.0   .     S
Ti222     Ce294    10.0   .     S
Ce223     Ce224    9.999   .     S
Ce223     Ti242    10.0   .     S
Ce223     Ce225    10.0   .     S
Ce223     Ce229    10.0   .     S
Ce224     Ce226    10.0   .     S
Ce224     Ce230    10.0   .     S
Ce225     Ce226    9.999   .     S
Ce225     Ti266    10.0   .     S
Ce225     Ce227    10.0   .     S
Ce226     Ce228    10.0   .     S
Ce227     Ce228    9.999   .     S
Ce227     Ti282    10.0   .     S
Ce227     Ce229    10.0   .     S
Ce228     Ce230    10.0   .     S
Ce229     Ce230    9.999   .     S
Ce229     Ti232    10.0   .     S
Ti231     Ti232    9.999   .     S
Ti231     Ce233    10.0   .     S
Ce233     Ce234    9.999   .     S
Ce233     Ce235    10.0   .     S
Ce233     Ce239    10.0   .     S
Ce234     Ce236    10.0   .     S
Ce234     Ce240    10.0   .     S
Ce235     Ce236    9.999   .     S
Ce235     Ti280    10.0   .     S
Ce235     Ce237    10.0   .     S
Ce236     Ce238    10.0   .     S
Ce237     Ce238    9.999   .     S
Ce237     Ti256    10.0   .     S
Ce237     Ce239    10.0   .     S
Ce238     Ce240    10.0   .     S
Ce239     Ce240    9.999   .     S
Ce239     Ti244    10.0   .     S
Ti241     Ti242    9.999   .     S
Ti241     Ce245    10.0   .     S
Ti243     Ti244    9.999   .     S
Ti243     V542    10.0   .     S
Ti243     Ce249    10.0   .     S
Ti244     V542    10.0   .     S
Ce245     Ce246    9.999   .     S
Ce245     Ce247    10.0   .     S
Ce245     Ce249    10.0   .     S
Ce246     Ce248    10.0   .     S
Ce246     Ce250    10.0   .     S
Ce247     Ce248    9.999   .     S
Ce247     Ti268    10.0   .     S
Ce247     Ce251    10.0   .     S
Ce248     Ce252    10.0   .     S
Ce249     Ce250    9.999   .     S
Ce249     Ce251    10.0   .     S
Ce250     Ce252    10.0   .     S
Ce251     Ce252    9.999   .     S
Ce251     Ti254    10.0   .     S
Ti253     Ti254    9.999   .     S
Ti253     V552    10.0   .     S
Ti253     Ce257    10.0   .     S
Ti254     V552    10.0   .     S
Ti255     Ti256    9.999   .     S
Ti255     V551    10.0   .     S
Ti255     Ce259    10.0   .     S
Ti256     V551    10.0   .     S
Ce257     Ce258    9.999   1_655     S
Ce257     Ce259    10.0   .     S
Ce257     Ce263    10.0   .     S
Ce258     Ce257    9.999   1_455     S
Ce258     Ce260    10.0   .     S
Ce258     Ce264    10.0   .     S
Ce259     Ce260    9.999   1_655     S
Ce259     Ce261    10.0   .     S
Ce260     Ce259    9.999   1_455     S
Ce260     Ce262    10.0   .     S
Ce261     Ce262    9.999   1_655     S
Ce261     Ti286    10.0   .     S
Ce261     Ce263    10.0   .     S
Ce262     Ce261    9.999   1_455     S
Ce262     Ce264    10.0   .     S
Ce263     Ce264    9.999   1_655     S
Ce263     Ti270    10.0   .     S
Ce264     Ce263    9.999   1_455     S
Ti265     Ti266    9.999   .     S
Ti265     Ce273    10.0   .     S
Ti267     Ti268    9.999   .     S
Ti267     Ce271    10.0   .     S
Ti269     Ti270    9.999   .     S
Ti269     Ce275    10.0   .     S
Ce271     Ce272    9.999   1_556     S
Ce271     Ce273    10.0   .     S
Ce271     Ce275    10.0   .     S
Ce272     Ce271    9.999   1_554     S
Ce272     Ce274    10.0   .     S
Ce272     Ce276    10.0   .     S
Ce273     Ce274    9.999   1_556     S
Ce273     Ce277    10.0   .     S
Ce274     Ce273    9.999   1_554     S
Ce274     Ce278    10.0   .     S
Ce275     Ce276    9.999   1_556     S
Ce275     Ce277    10.0   .     S
Ce276     Ce275    9.999   1_554     S
Ce276     Ce278    10.0   .     S
Ce277     Ce278    9.999   1_556     S
Ce277     Ti284    10.0   .     S
Ce278     Ce277    9.999   1_554     S
Ti279     Ti280    9.999   .     S
Ti279     Ce289    10.0   .     S
Ti281     Ti282    9.999   .     S
Ti281     Ce287    10.0   .     S
Ti283     Ti284    9.999   .     S
Ti283     Ce291    10.0   .     S
Ti285     Ti286    9.999   .     S
Ti285     Ce293    10.0   .     S
Ce287     Ce288    9.999   1_565     S
Ce287     Ce289    10.0   .     S
Ce287     Ce291    10.0   .     S
Ce288     Ce287    9.999   1_545     S
Ce288     Ce290    10.0   .     S
Ce288     Ce292    10.0   .     S
Ce289     Ce290    9.999   1_565     S
Ce289     Ce293    10.0   .     S
Ce290     Ce289    9.999   1_545     S
Ce290     Ce294    10.0   .     S
Ce291     Ce292    9.999   1_565     S
Ce291     Ce293    10.0   .     S
Ce292     Ce291    9.999   1_545     S
Ce292     Ce294    10.0   .     S
Ce293     Ce294    9.999   1_565     S
Ce294     Ce293    9.999   1_545     S
Ti295     Ti296    9.999   .     S
Ti295     Ce314    10.0   .     S
Ti296     Ce404    10.0   .     S
Ti297     Ti298    9.999   .     S
Ti297     Ce316    10.0   .     S
Ti298     Ce338    10.0   .     S
Ti299     Ti300    9.999   .     S
Ti299     Ce324    10.0   .     S
Ti300     Ce466    10.0   .     S
Ti301     Ti302    9.999   .     S
Ti301     Ce322    10.0   .     S
Ti302     Ce402    10.0   .     S
Ti303     Ti304    9.999   .     S
Ti303     V529    10.0   .     S
Ti303     Ce332    10.0   .     S
Ti304     V529    10.0   .     S
Ti304     Ce468    10.0   .     S
Ti305     Ti306    9.999   .     S
Ti305     V530    10.0   .     S
Ti305     Ce330    10.0   .     S
Ti306     V530    10.0   .     S
Ti306     Ce340    10.0   .     S
Ti307     Ti308    9.999   .     S
Ti307     Ce318    10.0   .     S
Ti308     Ce334    10.0   .     S
Ti309     Ti310    9.999   .     S
Ti309     Ce326    10.0   .     S
Ti310     Ce320    10.0   .     S
Ti311     Ti312    9.999   .     S
Ti311     Ce336    10.0   .     S
Ti312     Ce328    10.0   .     S
Ce313     Ce314    9.999   1_556     S
Ce313     Ti477    10.0   .     S
Ce313     Ce315    10.0   .     S
Ce313     Ce319    10.0   .     S
Ce314     Ce313    9.999   1_554     S
Ce314     Ce316    10.0   .     S
Ce314     Ce320    10.0   .     S
Ce315     Ce316    9.999   1_556     S
Ce315     Ti413    10.0   .     S
Ce315     Ce317    10.0   .     S
Ce316     Ce315    9.999   1_554     S
Ce316     Ce318    10.0   .     S
Ce317     Ce318    9.999   1_556     S
Ce317     Ti481    10.0   .     S
Ce317     Ce319    10.0   .     S
Ce318     Ce317    9.999   1_554     S
Ce318     Ce320    10.0   .     S
Ce319     Ce320    9.999   1_556     S
Ce319     Ti417    10.0   .     S
Ce320     Ce319    9.999   1_554     S
Ce321     Ce322    9.999   1_565     S
Ce321     Ti349    10.0   .     S
Ce321     Ce323    10.0   .     S
Ce321     Ce325    10.0   .     S
Ce322     Ce321    9.999   1_545     S
Ce322     Ce324    10.0   .     S
Ce322     Ce326    10.0   .     S
Ce323     Ce324    9.999   1_565     S
Ce323     Ti415    10.0   .     S
Ce323     Ce327    10.0   .     S
Ce324     Ce323    9.999   1_545     S
Ce324     Ce328    10.0   .     S
Ce325     Ce326    9.999   1_565     S
Ce325     Ti419    10.0   .     S
Ce325     Ce327    10.0   .     S
Ce326     Ce325    9.999   1_545     S
Ce326     Ce328    10.0   .     S
Ce327     Ce328    9.999   1_565     S
Ce327     Ti353    10.0   .     S
Ce328     Ce327    9.999   1_545     S
Ce329     Ce330    9.999   1_655     S
Ce329     Ti351    10.0   .     S
Ce329     Ce331    10.0   .     S
Ce329     Ce333    10.0   .     S
Ce330     Ce329    9.999   1_455     S
Ce330     Ce332    10.0   .     S
Ce330     Ce334    10.0   .     S
Ce331     Ce332    9.999   1_655     S
Ce331     Ti479    10.0   .     S
Ce331     Ce335    10.0   .     S
Ce332     Ce331    9.999   1_455     S
Ce332     Ce336    10.0   .     S
Ce333     Ce334    9.999   1_655     S
Ce333     Ti483    10.0   .     S
Ce333     Ce335    10.0   .     S
Ce334     Ce333    9.999   1_455     S
Ce334     Ce336    10.0   .     S
Ce335     Ce336    9.999   1_655     S
Ce335     Ti355    10.0   .     S
Ce336     Ce335    9.999   1_455     S
Ce337     Ce338    9.999   .     S
Ce337     Ti421    10.0   .     S
Ce337     Ce341    10.0   .     S
Ce337     Ce339    10.0   .     S
Ce338     Ce342    10.0   .     S
Ce338     Ce340    10.0   .     S
Ce339     Ce340    9.999   .     S
Ce339     Ti357    10.0   .     S
Ce339     Ce343    10.0   .     S
Ce340     Ce344    10.0   .     S
Ce341     Ce342    9.999   .     S
Ce341     Ti345    10.0   .     S
Ce341     Ce343    10.0   .     S
Ce342     Ce344    10.0   .     S
Ce343     Ce344    9.999   .     S
Ce343     Ti411    10.0   .     S
Ti345     Ti346    9.999   .     S
Ti346     Ce386    10.0   .     S
Ti347     Ti348    9.999   .     S
Ti347     Ce407    10.0   .     S
Ti348     Ce364    10.0   .     S
Ti349     Ti350    9.999   .     S
Ti350     Ce390    10.0   .     S
Ti351     Ti352    9.999   .     S
Ti351     V538    10.0   .     S
Ti352     V538    10.0   .     S
Ti352     Ce368    10.0   .     S
Ti353     Ti354    9.999   .     S
Ti354     Ce378    10.0   .     S
Ti355     Ti356    9.999   .     S
Ti356     Ce396    10.0   .     S
Ti357     Ti358    9.999   .     S
Ti357     V533    10.0   .     S
Ti358     V533    10.0   .     S
Ti358     Ce374    10.0   .     S
Ti359     Ti360    9.999   .     S
Ti359     Ce401    10.0   .     S
Ti360     Ce400    10.0   .     S
Ce361     Ce362    9.999   .     S
Ce361     Ce363    10.0   .     S
Ce361     Ce367    10.0   .     S
Ce362     Ce368    10.0   .     S
Ce362     Ce364    10.0   .     S
Ce363     Ce364    9.999   .     S
Ce363     Ti380    10.0   .     S
Ce363     Ce365    10.0   .     S
Ce364     Ce366    10.0   .     S
Ce365     Ce366    9.999   .     S
Ce365     Ce367    10.0   .     S
Ce366     Ce368    10.0   .     S
Ce367     Ce368    9.999   .     S
Ce367     Ti370    10.0   .     S
Ti369     Ti370    9.999   .     S
Ti369     V541    10.0   .     S
Ti369     Ce373    10.0   .     S
Ti370     V541    10.0   .     S
Ce371     Ce372    9.999   1_655     S
Ce371     Ce377    10.0   .     S
Ce371     Ce373    10.0   .     S
Ce372     Ce371    9.999   1_455     S
Ce372     Ce378    10.0   .     S
Ce372     Ce374    10.0   .     S
Ce373     Ce374    9.999   1_655     S
Ce373     Ce375    10.0   .     S
Ce374     Ce373    9.999   1_455     S
Ce374     Ce376    10.0   .     S
Ce375     Ce376    9.999   1_655     S
Ce375     Ce377    10.0   .     S
Ce376     Ce375    9.999   1_455     S
Ce376     Ce378    10.0   .     S
Ce377     Ce378    9.999   1_655     S
Ce377     Ti382    10.0   .     S
Ce378     Ce377    9.999   1_455     S
Ti379     Ti380    9.999   .     S
Ti379     Ce385    10.0   .     S
Ti381     Ti382    9.999   .     S
Ti381     Ce395    10.0   .     S
Ce383     Ce384    9.999   .     S
Ce383     Ce389    10.0   .     S
Ce383     Ce385    10.0   .     S
Ce384     Ce386    10.0   .     S
Ce384     Ce390    10.0   .     S
Ce385     Ce386    9.999   .     S
Ce385     Ce387    10.0   .     S
Ce386     Ce388    10.0   .     S
Ce387     Ce388    9.999   .     S
Ce387     Ce389    10.0   .     S
Ce388     Ce390    10.0   .     S
Ce389     Ce390    9.999   .     S
Ce389     Ti392    10.0   .     S
Ti391     Ti392    9.999   .     S
Ti391     Ce399    10.0   .     S
Ce393     Ce394    9.999   1_565     S
Ce393     Ce395    10.0   .     S
Ce393     Ce399    10.0   .     S
Ce394     Ce393    9.999   1_545     S
Ce394     Ce396    10.0   .     S
Ce394     Ce400    10.0   .     S
Ce395     Ce396    9.999   1_565     S
Ce395     Ce397    10.0   .     S
Ce396     Ce395    9.999   1_545     S
Ce396     Ce398    10.0   .     S
Ce397     Ce398    9.999   1_565     S
Ce397     Ce399    10.0   .     S
Ce398     Ce397    9.999   1_545     S
Ce398     Ce400    10.0   .     S
Ce399     Ce400    9.999   1_565     S
Ce400     Ce399    9.999   1_545     S
Ce401     Ce402    9.999   .     S
Ce401     Ce405    10.0   .     S
Ce401     Ce403    10.0   .     S
Ce402     Ce406    10.0   .     S
Ce402     Ce404    10.0   .     S
Ce403     Ce404    9.999   .     S
Ce403     Ti485    10.0   .     S
Ce403     Ce407    10.0   .     S
Ce404     Ce408    10.0   .     S
Ce405     Ce406    9.999   .     S
Ce405     Ti473    10.0   .     S
Ce405     Ce407    10.0   .     S
Ce406     Ce408    10.0   .     S
Ce407     Ce408    9.999   .     S
Ti409     Ti410    9.999   .     S
Ti409     V539    10.0   .     S
Ti409     Ce471    10.0   .     S
Ti410     V539    10.0   .     S
Ti410     Ce428    10.0   .     S
Ti411     Ti412    9.999   .     S
Ti411     V540    10.0   .     S
Ti412     V540    10.0   .     S
Ti412     Ce450    10.0   .     S
Ti413     Ti414    9.999   .     S
Ti414     Ce432    10.0   .     S
Ti415     Ti416    9.999   .     S
Ti416     Ce454    10.0   .     S
Ti417     Ti418    9.999   .     S
Ti418     Ce460    10.0   .     S
Ti419     Ti420    9.999   .     S
Ti420     Ce442    10.0   .     S
Ti421     Ti422    9.999   .     S
Ti422     Ce438    10.0   .     S
Ti423     Ti424    9.999   .     S
Ti423     Ce465    10.0   .     S
Ti424     Ce464    10.0   .     S
Ce425     Ce426    9.999   .     S
Ce425     Ce427    10.0   .     S
Ce425     Ce431    10.0   .     S
Ce426     Ce432    10.0   .     S
Ce426     Ce428    10.0   .     S
Ce427     Ce428    9.999   .     S
Ce427     Ti444    10.0   .     S
Ce427     Ce429    10.0   .     S
Ce428     Ce430    10.0   .     S
Ce429     Ce430    9.999   .     S
Ce429     Ce431    10.0   .     S
Ce430     Ce432    10.0   .     S
Ce431     Ce432    9.999   .     S
Ce431     Ti434    10.0   .     S
Ti433     Ti434    9.999   .     S
Ti433     Ce437    10.0   .     S
Ce435     Ce436    9.999   1_556     S
Ce435     Ce441    10.0   .     S
Ce435     Ce437    10.0   .     S
Ce436     Ce435    9.999   1_554     S
Ce436     Ce442    10.0   .     S
Ce436     Ce438    10.0   .     S
Ce437     Ce438    9.999   1_556     S
Ce437     Ce439    10.0   .     S
Ce438     Ce437    9.999   1_554     S
Ce438     Ce440    10.0   .     S
Ce439     Ce440    9.999   1_556     S
Ce439     Ce441    10.0   .     S
Ce440     Ce439    9.999   1_554     S
Ce440     Ce442    10.0   .     S
Ce441     Ce442    9.999   1_556     S
Ce441     Ti446    10.0   .     S
Ce442     Ce441    9.999   1_554     S
Ti443     Ti444    9.999   .     S
Ti443     V544    10.0   .     S
Ti443     Ce449    10.0   .     S
Ti444     V544    10.0   .     S
Ti445     Ti446    9.999   .     S
Ti445     Ce459    10.0   .     S
Ce447     Ce448    9.999   .     S
Ce447     Ce453    10.0   .     S
Ce447     Ce449    10.0   .     S
Ce448     Ce450    10.0   .     S
Ce448     Ce454    10.0   .     S
Ce449     Ce450    9.999   .     S
Ce449     Ce451    10.0   .     S
Ce450     Ce452    10.0   .     S
Ce451     Ce452    9.999   .     S
Ce451     Ce453    10.0   .     S
Ce452     Ce454    10.0   .     S
Ce453     Ce454    9.999   .     S
Ce453     Ti456    10.0   .     S
Ti455     Ti456    9.999   .     S
Ti455     Ce463    10.0   .     S
Ce457     Ce458    9.999   1_565     S
Ce457     Ce459    10.0   .     S
Ce457     Ce463    10.0   .     S
Ce458     Ce457    9.999   1_545     S
Ce458     Ce464    10.0   .     S
Ce458     Ce460    10.0   .     S
Ce459     Ce460    9.999   1_565     S
Ce459     Ce461    10.0   .     S
Ce460     Ce459    9.999   1_545     S
Ce460     Ce462    10.0   .     S
Ce461     Ce462    9.999   1_565     S
Ce461     Ce463    10.0   .     S
Ce462     Ce461    9.999   1_545     S
Ce462     Ce464    10.0   .     S
Ce463     Ce464    9.999   1_565     S
Ce464     Ce463    9.999   1_545     S
Ce465     Ce466    9.999   .     S
Ce465     Ce469    10.0   .     S
Ce465     Ce467    10.0   .     S
Ce466     Ce470    10.0   .     S
Ce466     Ce468    10.0   .     S
Ce467     Ce468    9.999   .     S
Ce467     Ti487    10.0   .     S
Ce467     Ce471    10.0   .     S
Ce468     Ce472    10.0   .     S
Ce469     Ce470    9.999   .     S
Ce469     Ti475    10.0   .     S
Ce469     Ce471    10.0   .     S
Ce470     Ce472    10.0   .     S
Ce471     Ce472    9.999   .     S
Ti473     Ti474    9.999   .     S
Ti474     Ce492    10.0   .     S
Ti475     Ti476    9.999   .     S
Ti476     Ce514    10.0   .     S
Ti477     Ti478    9.999   .     S
Ti478     Ce518    10.0   .     S
Ti479     Ti480    9.999   .     S
Ti479     V534    10.0   .     S
Ti480     V534    10.0   .     S
Ti480     Ce496    10.0   .     S
Ti481     Ti482    9.999   .     S
Ti482     Ce506    10.0   .     S
Ti483     Ti484    9.999   .     S
Ti484     Ce528    10.0   .     S
Ti485     Ti486    9.999   .     S
Ti486     Ce524    10.0   .     S
Ti487     Ti488    9.999   .     S
Ti487     V532    10.0   .     S
Ti488     V532    10.0   .     S
Ti488     Ce502    10.0   .     S
Ce489     Ce490    9.999   .     S
Ce489     Ce491    10.0   .     S
Ce489     Ce495    10.0   .     S
Ce490     Ce492    10.0   .     S
Ce490     Ce496    10.0   .     S
Ce491     Ce492    9.999   .     S
Ce491     Ti508    10.0   .     S
Ce491     Ce493    10.0   .     S
Ce492     Ce494    10.0   .     S
Ce493     Ce494    9.999   .     S
Ce493     Ce495    10.0   .     S
Ce494     Ce496    10.0   .     S
Ce495     Ce496    9.999   .     S
Ce495     Ti498    10.0   .     S
Ti497     Ti498    9.999   .     S
Ti497     V543    10.0   .     S
Ti497     Ce501    10.0   .     S
Ti498     V543    10.0   .     S
Ce499     Ce500    9.999   1_655     S
Ce499     Ce505    10.0   .     S
Ce499     Ce501    10.0   .     S
Ce500     Ce499    9.999   1_455     S
Ce500     Ce506    10.0   .     S
Ce500     Ce502    10.0   .     S
Ce501     Ce502    9.999   1_655     S
Ce501     Ce503    10.0   .     S
Ce502     Ce501    9.999   1_455     S
Ce502     Ce504    10.0   .     S
Ce503     Ce504    9.999   1_655     S
Ce503     Ce505    10.0   .     S
Ce504     Ce503    9.999   1_455     S
Ce504     Ce506    10.0   .     S
Ce505     Ce506    9.999   1_655     S
Ce505     Ti510    10.0   .     S
Ce506     Ce505    9.999   1_455     S
Ti507     Ti508    9.999   .     S
Ti507     Ce513    10.0   .     S
Ti509     Ti510    9.999   .     S
Ti509     Ce527    10.0   .     S
Ce511     Ce512    9.999   .     S
Ce511     Ce517    10.0   .     S
Ce511     Ce513    10.0   .     S
Ce512     Ce514    10.0   .     S
Ce512     Ce518    10.0   .     S
Ce513     Ce514    9.999   .     S
Ce513     Ce515    10.0   .     S
Ce514     Ce516    10.0   .     S
Ce515     Ce516    9.999   .     S
Ce515     Ce517    10.0   .     S
Ce516     Ce518    10.0   .     S
Ce517     Ce518    9.999   .     S
Ce517     Ti520    10.0   .     S
Ti519     Ti520    9.999   .     S
Ti519     Ce523    10.0   .     S
Ce521     Ce522    9.999   1_556     S
Ce521     Ce527    10.0   .     S
Ce521     Ce523    10.0   .     S
Ce522     Ce521    9.999   1_554     S
Ce522     Ce528    10.0   .     S
Ce522     Ce524    10.0   .     S
Ce523     Ce524    9.999   1_556     S
Ce523     Ce525    10.0   .     S
Ce524     Ce523    9.999   1_554     S
Ce524     Ce526    10.0   .     S
Ce525     Ce526    9.999   1_556     S
Ce525     Ce527    10.0   .     S
Ce526     Ce525    9.999   1_554     S
Ce526     Ce528    10.0   .     S
Ce527     Ce528    9.999   1_556     S
Ce528     Ce527    9.999   1_554     S
V529     Er562    10.0   .     S
V530     Er566    10.0   .     S
V531     Er572    10.0   .     S
V532     Er563    10.0   .     S
V533     Er567    10.0   .     S
V534     Er561    10.0   .     S
V535     Er570    10.0   .     S
V536     Er556    10.0   .     S
V537     Er571    10.0   .     S
V538     Er565    10.0   .     S
V539     Er555    10.0   .     S
V540     Er554    10.0   .     S
V541     Er568    10.0   .     S
V542     Er569    10.0   .     S
V543     Er564    10.0   .     S
V544     Er553    10.0   .     S
V545     Er558    10.0   .     S
V546     Er574    10.0   .     S
V547     Er560    10.0   .     S
V548     Er575    10.0   .     S
V549     Er557    10.0   .     S
V550     Er573    10.0   .     S
V551     Er559    10.0   .     S
V552     Er576    10.0   .     S
Er553     Er554    9.999   .     S
Er553     Er555    9.999   .     S
Er553     Er575    10.0   .     S
Er553     Er560    10.0   .     S
Er554     Er556    9.999   .     S
Er554     Er567    10.0   .     S
Er554     Er558    10.0   .     S
Er555     Er556    9.999   .     S
Er555     Er574    10.0   .     S
Er555     Er563    10.0   .     S
Er556     Er566    10.0   .     S
Er556     Er562    10.0   .     S
Er557     Er558    9.999   1_655     S
Er557     Er559    9.999   .     S
Er557     Er570    10.0   .     S
Er557     Er568    10.0   .     S
Er558     Er557    9.999   1_455     S
Er558     Er560    9.999   .     S
Er558     Er567    10.0   .     S
Er559     Er560    9.999   1_655     S
Er559     Er576    10.0   .     S
Er559     Er569    10.0   .     S
Er560     Er559    9.999   1_455     S
Er560     Er575    10.0   .     S
Er561     Er562    9.999   1_655     S
Er561     Er564    9.999   .     S
Er561     Er572    10.0   .     S
Er561     Er565    10.0   .     S
Er562     Er561    9.999   1_455     S
Er562     Er563    9.999   .     S
Er562     Er566    10.0   .     S
Er563     Er564    9.999   1_455     S
Er563     Er574    10.0   .     S
Er564     Er563    9.999   1_655     S
Er564     Er573    10.0   .     S
Er564     Er571    10.0   .     S
Er565     Er566    9.999   1_655     S
Er565     Er568    9.999   .     S
Er565     Er572    10.0   .     S
Er566     Er565    9.999   1_455     S
Er566     Er567    9.999   .     S
Er567     Er568    9.999   1_455     S
Er568     Er567    9.999   1_655     S
Er568     Er570    10.0   .     S
Er569     Er570    9.999   .     S
Er569     Er571    9.999   .     S
Er569     Er576    10.0   .     S
Er570     Er572    9.999   .     S
Er571     Er572    9.999   .     S
Er571     Er573    10.0   .     S
Er573     Er574    9.999   1_655     S
Er573     Er576    9.999   .     S
Er574     Er573    9.999   1_455     S
Er574     Er575    9.999   .     S
Er575     Er576    9.999   1_455     S
Er576     Er575    9.999   1_655     S
