data_urq
_audit_creation_date              2020-02-02
_audit_creation_method            'Pymatgen'
_symmetry_space_group_name_H-M    'P1'
_symmetry_Int_Tables_number       1
loop_
_symmetry_equiv_pos_as_xyz
  x,y,z
_cell_length_a                    24.4949
_cell_length_b                    24.4949
_cell_length_c                    24.4949
_cell_angle_alpha                 90.0
_cell_angle_beta                 90.0
_cell_angle_gamma                 90.0
loop_
_atom_site_label
_atom_site_type_symbol
_atom_site_fract_x
_atom_site_fract_y
_atom_site_fract_z
Ti1     Ti     0.3333   0.8333   0.8333
Ti2     Ti     0.8333   0.6667   0.8333
Ti3     Ti     0.8333   0.3333   0.8333
Ti4     Ti     0.6667   0.8333   0.8333
Ti5     Ti     0.8333   0.8333   0.3333
Ti6     Ti     0.8333   0.8333   0.6667
Ti7     Ti     0.8333   0.1667   0.3333
Ti8     Ti     0.1667   0.8333   0.3333
Ti9     Ti     0.1667   0.8333   0.6667
Ti10     Ti     0.8333   0.1667   0.6667
Ti11     Ti     0.8333   0.3333   0.1667
Ti12     Ti     0.6667   0.8333   0.1667
Ti13     Ti     0.1667   0.3333   0.8333
Ti14     Ti     0.6667   0.1667   0.8333
Ti15     Ti     0.1667   0.6667   0.8333
Ti16     Ti     0.3333   0.1667   0.8333
Ti17     Ti     0.8333   0.6667   0.1667
Ti18     Ti     0.3333   0.8333   0.1667
Er19     Er     0.5   0.5   0.0
V20     V     0.0   0.0   0.0
Er21     Er     0.0   0.5   0.5
Er22     Er     0.5   0.0   0.5
Ti23     Ti     0.1667   0.1667   0.3333
Ti24     Ti     0.1667   0.1667   0.6667
Ti25     Ti     0.3333   0.1667   0.1667
Ti26     Ti     0.1667   0.6667   0.1667
Ti27     Ti     0.1667   0.3333   0.1667
Ti28     Ti     0.6667   0.1667   0.1667
loop_
_geom_bond_atom_site_label_1
_geom_bond_atom_site_label_2
_geom_bond_distance
_geom_bond_site_symmetry_2
_ccdc_geom_bond_type
Ti1     Er19    10.0   1_556     S
Ti1     Er22    10.0   1_565     S
Ti1     V20    10.0   1_566     S
Ti2     Er19    10.0   1_556     S
Ti2     Er21    10.0   1_655     S
Ti2     V20    10.0   1_666     S
Ti3     Er19    10.0   1_556     S
Ti3     Er21    10.0   1_655     S
Ti3     V20    10.0   1_656     S
Ti4     Er19    10.0   1_556     S
Ti4     Er22    10.0   1_565     S
Ti4     V20    10.0   1_666     S
Ti5     Er22    10.0   1_565     S
Ti5     Er21    10.0   1_655     S
Ti5     V20    10.0   1_665     S
Ti6     Er22    10.0   1_565     S
Ti6     Er21    10.0   1_655     S
Ti6     V20    10.0   1_666     S
Ti7     Er22    10.0   .     S
Ti7     Er21    10.0   1_655     S
Ti7     V20    10.0   1_655     S
Ti8     Er22    10.0   1_565     S
Ti8     Er21    10.0   .     S
Ti8     V20    10.0   1_565     S
Ti9     Er22    10.0   1_565     S
Ti9     Er21    10.0   .     S
Ti9     V20    10.0   1_566     S
Ti10     Er22    10.0   .     S
Ti10     Er21    10.0   1_655     S
Ti10     V20    10.0   1_656     S
Ti11     Er19    10.0   .     S
Ti11     Er21    10.0   1_655     S
Ti11     V20    10.0   1_655     S
Ti12     Er19    10.0   .     S
Ti12     Er22    10.0   1_565     S
Ti12     V20    10.0   1_665     S
Ti13     Er19    10.0   1_556     S
Ti13     Er21    10.0   .     S
Ti13     V20    10.0   1_556     S
Ti14     Er19    10.0   1_556     S
Ti14     Er22    10.0   .     S
Ti14     V20    10.0   1_656     S
Ti15     Er19    10.0   1_556     S
Ti15     Er21    10.0   .     S
Ti15     V20    10.0   1_566     S
Ti16     Er19    10.0   1_556     S
Ti16     Er22    10.0   .     S
Ti16     V20    10.0   1_556     S
Ti17     Er19    10.0   .     S
Ti17     Er21    10.0   1_655     S
Ti17     V20    10.0   1_665     S
Ti18     Er19    10.0   .     S
Ti18     Er22    10.0   1_565     S
Ti18     V20    10.0   1_565     S
Er19     Ti16    10.0   1_554     S
Er19     Ti13    10.0   1_554     S
Er19     Ti3    10.0   1_554     S
Er19     Ti14    10.0   1_554     S
Er19     Ti4    10.0   1_554     S
Er19     Ti2    10.0   1_554     S
Er19     Ti15    10.0   1_554     S
Er19     Ti1    10.0   1_554     S
Er19     Ti26    10.0   .     S
Er19     Ti28    10.0   .     S
Er19     Ti27    10.0   .     S
Er19     Ti25    10.0   .     S
V20     Ti6    10.0   1_444     S
V20     Ti2    10.0   1_444     S
V20     Ti4    10.0   1_444     S
V20     Ti10    10.0   1_454     S
V20     Ti14    10.0   1_454     S
V20     Ti3    10.0   1_454     S
V20     Ti24    10.0   1_554     S
V20     Ti13    10.0   1_554     S
V20     Ti16    10.0   1_554     S
V20     Ti9    10.0   1_544     S
V20     Ti15    10.0   1_544     S
V20     Ti1    10.0   1_544     S
V20     Ti8    10.0   1_545     S
V20     Ti26    10.0   1_545     S
V20     Ti18    10.0   1_545     S
V20     Ti12    10.0   1_445     S
V20     Ti17    10.0   1_445     S
V20     Ti5    10.0   1_445     S
V20     Ti7    10.0   1_455     S
V20     Ti28    10.0   1_455     S
V20     Ti11    10.0   1_455     S
V20     Ti23    10.0   .     S
V20     Ti25    10.0   .     S
V20     Ti27    10.0   .     S
Er21     Ti11    10.0   1_455     S
Er21     Ti7    10.0   1_455     S
Er21     Ti5    10.0   1_455     S
Er21     Ti17    10.0   1_455     S
Er21     Ti2    10.0   1_455     S
Er21     Ti6    10.0   1_455     S
Er21     Ti10    10.0   1_455     S
Er21     Ti3    10.0   1_455     S
Er21     Ti24    10.0   .     S
Er21     Ti26    10.0   .     S
Er21     Ti23    10.0   .     S
Er21     Ti27    10.0   .     S
Er22     Ti8    10.0   1_545     S
Er22     Ti18    10.0   1_545     S
Er22     Ti1    10.0   1_545     S
Er22     Ti9    10.0   1_545     S
Er22     Ti6    10.0   1_545     S
Er22     Ti4    10.0   1_545     S
Er22     Ti12    10.0   1_545     S
Er22     Ti5    10.0   1_545     S
Er22     Ti24    10.0   .     S
Er22     Ti28    10.0   .     S
Er22     Ti25    10.0   .     S
Er22     Ti23    10.0   .     S
Ti24     V20    10.0   1_556     S
Ti26     V20    10.0   1_565     S
Ti28     V20    10.0   1_655     S
