data_urwa
_audit_creation_date              2020-02-02
_audit_creation_method            'Pymatgen'
_symmetry_space_group_name_H-M    'P1'
_symmetry_Int_Tables_number       1
loop_
_symmetry_equiv_pos_as_xyz
  x,y,z
_cell_length_a                    101.4421
_cell_length_b                    101.4421
_cell_length_c                    101.4421
_cell_angle_alpha                 90.0
_cell_angle_beta                 90.0
_cell_angle_gamma                 90.0
loop_
_atom_site_label
_atom_site_type_symbol
_atom_site_fract_x
_atom_site_fract_y
_atom_site_fract_z
Ce1     Ce     0.8606   0.8606   0.0
Ti2     Ti     0.9303   0.9303   0.0
Ce3     Ce     0.8606   0.0   0.8606
Ti4     Ti     0.9303   0.0   0.9303
Ce5     Ce     0.0   0.8606   0.8606
Ti6     Ti     0.0   0.9303   0.9303
Ce7     Ce     0.1394   0.1394   0.0
Ti8     Ti     0.0697   0.0697   0.0
Ce9     Ce     0.1394   0.0   0.1394
Ti10     Ti     0.0697   0.0   0.0697
Ce11     Ce     0.0   0.1394   0.1394
Ti12     Ti     0.0   0.0697   0.0697
Ce13     Ce     0.8606   0.1394   0.0
Ti14     Ti     0.9303   0.0697   0.0
Ce15     Ce     0.0   0.1394   0.8606
Ti16     Ti     0.0   0.0697   0.9303
Ce17     Ce     0.1394   0.0   0.8606
Ti18     Ti     0.0697   0.0   0.9303
Ce19     Ce     0.1394   0.8606   0.0
Ti20     Ti     0.0697   0.9303   0.0
Ce21     Ce     0.0   0.8606   0.1394
Ti22     Ti     0.0   0.9303   0.0697
Ce23     Ce     0.8606   0.0   0.1394
Ti24     Ti     0.9303   0.0   0.0697
Ce25     Ce     0.5   0.6394   0.8606
Ti26     Ti     0.5   0.5697   0.9303
Ce27     Ce     0.3606   0.5   0.8606
Ti28     Ti     0.4303   0.5   0.9303
Ce29     Ce     0.5   0.3606   0.8606
Ti30     Ti     0.5   0.4303   0.9303
Ce31     Ce     0.6394   0.5   0.8606
Ti32     Ti     0.5697   0.5   0.9303
Ce33     Ce     0.6394   0.3606   0.0
Ti34     Ti     0.5697   0.4303   0.0
Ce35     Ce     0.6394   0.5   0.1394
Ti36     Ti     0.5697   0.5   0.0697
Ce37     Ce     0.3606   0.3606   0.0
Ti38     Ti     0.4303   0.4303   0.0
Ce39     Ce     0.5   0.3606   0.1394
Ti40     Ti     0.5   0.4303   0.0697
Ce41     Ce     0.3606   0.5   0.1394
Ti42     Ti     0.4303   0.5   0.0697
Ce43     Ce     0.6394   0.6394   0.0
Ti44     Ti     0.5697   0.5697   0.0
Ce45     Ce     0.3606   0.6394   0.0
Ti46     Ti     0.4303   0.5697   0.0
Ce47     Ce     0.5   0.6394   0.1394
Ti48     Ti     0.5   0.5697   0.0697
Ce49     Ce     0.6394   0.8606   0.5
Ti50     Ti     0.5697   0.9303   0.5
Ce51     Ce     0.5   0.8606   0.3606
Ti52     Ti     0.5   0.9303   0.4303
Ce53     Ce     0.3606   0.8606   0.5
Ti54     Ti     0.4303   0.9303   0.5
Ce55     Ce     0.5   0.8606   0.6394
Ti56     Ti     0.5   0.9303   0.5697
Ce57     Ce     0.3606   0.1394   0.5
Ti58     Ti     0.4303   0.0697   0.5
Ce59     Ce     0.3606   0.0   0.3606
Ti60     Ti     0.4303   0.0   0.4303
Ce61     Ce     0.5   0.1394   0.3606
Ti62     Ti     0.5   0.0697   0.4303
Ce63     Ce     0.6394   0.0   0.3606
Ti64     Ti     0.5697   0.0   0.4303
Ce65     Ce     0.6394   0.1394   0.5
Ti66     Ti     0.5697   0.0697   0.5
Ce67     Ce     0.6394   0.0   0.6394
Ti68     Ti     0.5697   0.0   0.5697
Ce69     Ce     0.3606   0.0   0.6394
Ti70     Ti     0.4303   0.0   0.5697
Ce71     Ce     0.5   0.1394   0.6394
Ti72     Ti     0.5   0.0697   0.5697
V73     V     0.2848   0.2848   0.1454
V74     V     0.2152   0.2152   0.1454
Er75     Er     0.3002   0.3002   0.0493
Er76     Er     0.3002   0.3002   0.9507
V77     V     0.2848   0.2848   0.8546
V78     V     0.2152   0.2152   0.8546
Er79     Er     0.1998   0.1998   0.0493
Er80     Er     0.1998   0.1998   0.9507
V81     V     0.2848   0.1454   0.2848
V82     V     0.2152   0.1454   0.2152
Er83     Er     0.3002   0.0493   0.3002
Er84     Er     0.3002   0.9507   0.3002
V85     V     0.2848   0.8546   0.2848
V86     V     0.2152   0.8546   0.2152
Er87     Er     0.1998   0.0493   0.1998
Er88     Er     0.1998   0.9507   0.1998
V89     V     0.1454   0.2848   0.2848
V90     V     0.1454   0.2152   0.2152
Er91     Er     0.0493   0.3002   0.3002
Er92     Er     0.9507   0.3002   0.3002
V93     V     0.8546   0.2848   0.2848
V94     V     0.8546   0.2152   0.2152
Er95     Er     0.0493   0.1998   0.1998
Er96     Er     0.9507   0.1998   0.1998
V97     V     0.3546   0.2848   0.2152
V98     V     0.3546   0.2152   0.2848
Er99     Er     0.5493   0.3002   0.1998
Er100     Er     0.4507   0.3002   0.1998
V101     V     0.6454   0.2848   0.2152
V102     V     0.6454   0.2152   0.2848
Er103     Er     0.5493   0.1998   0.3002
Er104     Er     0.4507   0.1998   0.3002
V105     V     0.2848   0.2152   0.3546
V106     V     0.2152   0.2848   0.3546
Er107     Er     0.3002   0.1998   0.5493
Er108     Er     0.3002   0.1998   0.4507
V109     V     0.2848   0.2152   0.6454
V110     V     0.2152   0.2848   0.6454
Er111     Er     0.1998   0.3002   0.5493
Er112     Er     0.1998   0.3002   0.4507
Er113     Er     0.5493   0.1998   0.6998
Er114     Er     0.4507   0.1998   0.6998
V115     V     0.3546   0.2152   0.7151
V116     V     0.3546   0.2848   0.7849
V117     V     0.6454   0.2848   0.7849
V118     V     0.6454   0.2152   0.7151
Er119     Er     0.5493   0.3002   0.8002
Er120     Er     0.4507   0.3002   0.8002
Er121     Er     0.6998   0.1998   0.5493
Er122     Er     0.6998   0.1998   0.4507
V123     V     0.7151   0.2152   0.3546
V124     V     0.7849   0.2848   0.3546
V125     V     0.7151   0.2152   0.6454
V126     V     0.7849   0.2848   0.6454
Er127     Er     0.8002   0.3002   0.5493
Er128     Er     0.8002   0.3002   0.4507
V129     V     0.7151   0.2848   0.1454
V130     V     0.7849   0.2152   0.1454
Er131     Er     0.6998   0.3002   0.0493
Er132     Er     0.6998   0.3002   0.9507
V133     V     0.7151   0.2848   0.8546
V134     V     0.7849   0.2152   0.8546
Er135     Er     0.8002   0.1998   0.0493
Er136     Er     0.8002   0.1998   0.9507
V137     V     0.1454   0.2848   0.7151
V138     V     0.1454   0.2152   0.7849
Er139     Er     0.0493   0.3002   0.6998
Er140     Er     0.9507   0.3002   0.6998
V141     V     0.8546   0.2848   0.7151
V142     V     0.8546   0.2152   0.7849
Er143     Er     0.0493   0.1998   0.8002
Er144     Er     0.9507   0.1998   0.8002
V145     V     0.2848   0.1454   0.7151
V146     V     0.2152   0.1454   0.7849
Er147     Er     0.3002   0.0493   0.6998
Er148     Er     0.3002   0.9507   0.6998
V149     V     0.2848   0.8546   0.7151
V150     V     0.2152   0.8546   0.7849
Er151     Er     0.1998   0.0493   0.8002
Er152     Er     0.1998   0.9507   0.8002
V153     V     0.2152   0.7849   0.1454
V154     V     0.2848   0.7151   0.1454
Er155     Er     0.3002   0.6998   0.0493
Er156     Er     0.3002   0.6998   0.9507
V157     V     0.2848   0.7151   0.8546
V158     V     0.2152   0.7849   0.8546
Er159     Er     0.1998   0.8002   0.0493
Er160     Er     0.1998   0.8002   0.9507
Er161     Er     0.6998   0.5493   0.1998
Er162     Er     0.6998   0.4507   0.1998
V163     V     0.7151   0.3546   0.2152
V164     V     0.7849   0.3546   0.2848
V165     V     0.7849   0.6454   0.2848
V166     V     0.7151   0.6454   0.2152
Er167     Er     0.8002   0.5493   0.3002
Er168     Er     0.8002   0.4507   0.3002
Er169     Er     0.5493   0.6998   0.1998
Er170     Er     0.4507   0.6998   0.1998
V171     V     0.6454   0.7151   0.2152
V172     V     0.6454   0.7849   0.2848
V173     V     0.3546   0.7849   0.2848
V174     V     0.3546   0.7151   0.2152
Er175     Er     0.5493   0.8002   0.3002
Er176     Er     0.4507   0.8002   0.3002
V177     V     0.7151   0.3546   0.7849
V178     V     0.7849   0.3546   0.7151
Er179     Er     0.6998   0.5493   0.8002
Er180     Er     0.6998   0.4507   0.8002
V181     V     0.7151   0.6454   0.7849
V182     V     0.7849   0.6454   0.7151
Er183     Er     0.8002   0.5493   0.6998
Er184     Er     0.8002   0.4507   0.6998
V185     V     0.7151   0.7849   0.3546
V186     V     0.7849   0.7151   0.3546
Er187     Er     0.6998   0.8002   0.5493
Er188     Er     0.6998   0.8002   0.4507
V189     V     0.7849   0.7151   0.6454
V190     V     0.7151   0.7849   0.6454
Er191     Er     0.8002   0.6998   0.5493
Er192     Er     0.8002   0.6998   0.4507
V193     V     0.6454   0.7151   0.7849
V194     V     0.6454   0.7849   0.7151
Er195     Er     0.5493   0.6998   0.8002
Er196     Er     0.4507   0.6998   0.8002
V197     V     0.3546   0.7151   0.7849
V198     V     0.3546   0.7849   0.7151
Er199     Er     0.5493   0.8002   0.6998
Er200     Er     0.4507   0.8002   0.6998
V201     V     0.7151   0.7151   0.1454
V202     V     0.7849   0.7849   0.1454
Er203     Er     0.6998   0.6998   0.0493
Er204     Er     0.6998   0.6998   0.9507
V205     V     0.7151   0.7151   0.8546
V206     V     0.7849   0.7849   0.8546
Er207     Er     0.8002   0.8002   0.0493
Er208     Er     0.8002   0.8002   0.9507
V209     V     0.7151   0.1454   0.7151
V210     V     0.7849   0.1454   0.7849
Er211     Er     0.6998   0.0493   0.6998
Er212     Er     0.6998   0.9507   0.6998
V213     V     0.7151   0.8546   0.7151
V214     V     0.7849   0.8546   0.7849
Er215     Er     0.8002   0.0493   0.8002
Er216     Er     0.8002   0.9507   0.8002
V217     V     0.1454   0.7849   0.7849
V218     V     0.1454   0.7151   0.7151
Er219     Er     0.0493   0.6998   0.6998
Er220     Er     0.9507   0.6998   0.6998
V221     V     0.8546   0.7151   0.7151
V222     V     0.8546   0.7849   0.7849
Er223     Er     0.0493   0.8002   0.8002
Er224     Er     0.9507   0.8002   0.8002
Er225     Er     0.1998   0.5493   0.6998
Er226     Er     0.1998   0.4507   0.6998
V227     V     0.2152   0.3546   0.7151
V228     V     0.2848   0.3546   0.7849
V229     V     0.2848   0.6454   0.7849
V230     V     0.2152   0.6454   0.7151
Er231     Er     0.3002   0.5493   0.8002
Er232     Er     0.3002   0.4507   0.8002
Er233     Er     0.1998   0.6998   0.5493
Er234     Er     0.1998   0.6998   0.4507
V235     V     0.2152   0.7151   0.6454
V236     V     0.2848   0.7849   0.6454
V237     V     0.2848   0.7849   0.3546
V238     V     0.2152   0.7151   0.3546
Er239     Er     0.3002   0.8002   0.5493
Er240     Er     0.3002   0.8002   0.4507
V241     V     0.7151   0.1454   0.2848
V242     V     0.7849   0.1454   0.2152
Er243     Er     0.6998   0.0493   0.3002
Er244     Er     0.6998   0.9507   0.3002
V245     V     0.7151   0.8546   0.2848
V246     V     0.7849   0.8546   0.2152
Er247     Er     0.8002   0.0493   0.1998
Er248     Er     0.8002   0.9507   0.1998
V249     V     0.1454   0.7849   0.2152
V250     V     0.1454   0.7151   0.2848
Er251     Er     0.0493   0.6998   0.3002
Er252     Er     0.9507   0.6998   0.3002
V253     V     0.8546   0.7151   0.2848
V254     V     0.8546   0.7849   0.2152
Er255     Er     0.0493   0.8002   0.1998
Er256     Er     0.9507   0.8002   0.1998
V257     V     0.2848   0.6454   0.2152
V258     V     0.2152   0.6454   0.2848
Er259     Er     0.3002   0.5493   0.1998
Er260     Er     0.3002   0.4507   0.1998
V261     V     0.2848   0.3546   0.2152
V262     V     0.2152   0.3546   0.2848
Er263     Er     0.1998   0.5493   0.3002
Er264     Er     0.1998   0.4507   0.3002
Ce265     Ce     0.8606   0.6394   0.5
Ti266     Ti     0.9303   0.5697   0.5
Ce267     Ce     0.8606   0.5   0.3606
Ti268     Ti     0.9303   0.5   0.4303
Ce269     Ce     0.8606   0.3606   0.5
Ti270     Ti     0.9303   0.4303   0.5
Ce271     Ce     0.8606   0.5   0.6394
Ti272     Ti     0.9303   0.5   0.5697
Ce273     Ce     0.1394   0.3606   0.5
Ti274     Ti     0.0697   0.4303   0.5
Ce275     Ce     0.0   0.3606   0.3606
Ti276     Ti     0.0   0.4303   0.4303
Ce277     Ce     0.1394   0.5   0.3606
Ti278     Ti     0.0697   0.5   0.4303
Ce279     Ce     0.0   0.6394   0.3606
Ti280     Ti     0.0   0.5697   0.4303
Ce281     Ce     0.1394   0.6394   0.5
Ti282     Ti     0.0697   0.5697   0.5
Ce283     Ce     0.0   0.6394   0.6394
Ti284     Ti     0.0   0.5697   0.5697
Ce285     Ce     0.0   0.3606   0.6394
Ti286     Ti     0.0   0.4303   0.5697
Ce287     Ce     0.1394   0.5   0.6394
Ti288     Ti     0.0697   0.5   0.5697
loop_
_geom_bond_atom_site_label_1
_geom_bond_atom_site_label_2
_geom_bond_distance
_geom_bond_site_symmetry_2
_ccdc_geom_bond_type
Ce1     Er208    10.0   1_554     S
Ce1     Er207    10.0   .     S
Ce1     Ti2    9.999   .     S
Ti2     Ti24    10.001   1_565     S
Ti2     Ti22    10.001   1_655     S
Ti2     Ti6    10.001   1_654     S
Ti2     Ti4    10.001   1_564     S
Ce3     Er216    10.0   1_545     S
Ce3     Er215    10.0   .     S
Ce3     Ti4    9.999   .     S
Ti4     Ti16    10.001   1_655     S
Ti4     Ti14    10.001   1_556     S
Ti4     Ti6    10.001   1_645     S
Ti4     Ti2    10.001   1_546     S
Ce5     Er223    10.0   .     S
Ce5     Er224    10.0   1_455     S
Ce5     Ti6    9.999   .     S
Ti6     Ti18    10.001   1_565     S
Ti6     Ti20    10.001   1_556     S
Ti6     Ti4    10.001   1_465     S
Ti6     Ti2    10.001   1_456     S
Ce7     Er79    10.0   .     S
Ce7     Er80    10.0   1_554     S
Ce7     Ti8    9.999   .     S
Ti8     Ti10    10.001   .     S
Ti8     Ti12    10.001   .     S
Ti8     Ti16    10.001   1_554     S
Ti8     Ti18    10.001   1_554     S
Ce9     Er88    10.0   1_545     S
Ce9     Er87    10.0   .     S
Ce9     Ti10    9.999   .     S
Ti10     Ti12    10.001   .     S
Ti10     Ti20    10.001   1_545     S
Ti10     Ti22    10.001   1_545     S
Ce11     Er95    10.0   .     S
Ce11     Er96    10.0   1_455     S
Ce11     Ti12    9.999   .     S
Ti12     Ti14    10.001   1_455     S
Ti12     Ti24    10.001   1_455     S
Ce13     Er136    10.0   1_554     S
Ce13     Er135    10.0   .     S
Ce13     Ti14    9.999   .     S
Ti14     Ti4    10.001   1_554     S
Ti14     Ti12    10.001   1_655     S
Ti14     Ti16    10.001   1_654     S
Ti14     Ti24    10.001   .     S
Ce15     Er144    10.0   1_455     S
Ce15     Er143    10.0   .     S
Ce15     Ti16    9.999   .     S
Ti16     Ti4    10.001   1_455     S
Ti16     Ti8    10.001   1_556     S
Ti16     Ti14    10.001   1_456     S
Ti16     Ti18    10.001   .     S
Ce17     Er151    10.0   .     S
Ce17     Er152    10.0   1_545     S
Ce17     Ti18    9.999   .     S
Ti18     Ti6    10.001   1_545     S
Ti18     Ti8    10.001   1_556     S
Ti18     Ti20    10.001   1_546     S
Ce19     Er160    10.0   1_554     S
Ce19     Er159    10.0   .     S
Ce19     Ti20    9.999   .     S
Ti20     Ti6    10.001   1_554     S
Ti20     Ti10    10.001   1_565     S
Ti20     Ti18    10.001   1_564     S
Ti20     Ti22    10.001   .     S
Ce21     Er256    10.0   1_455     S
Ce21     Er255    10.0   .     S
Ce21     Ti22    9.999   .     S
Ti22     Ti2    10.001   1_455     S
Ti22     Ti10    10.001   1_565     S
Ti22     Ti24    10.001   1_465     S
Ce23     Er247    10.0   .     S
Ce23     Er248    10.0   1_545     S
Ce23     Ti24    9.999   .     S
Ti24     Ti2    10.001   1_545     S
Ti24     Ti12    10.001   1_655     S
Ti24     Ti22    10.001   1_645     S
Ce25     Er196    10.0   .     S
Ce25     Er195    10.0   .     S
Ce25     Ti26    9.999   .     S
Ti26     Ti46    10.001   1_556     S
Ti26     Ti44    10.001   1_556     S
Ti26     Ti28    10.001   .     S
Ti26     Ti32    10.001   .     S
Ce27     Er232    10.0   .     S
Ce27     Er231    10.0   .     S
Ce27     Ti28    9.999   .     S
Ti28     Ti38    10.001   1_556     S
Ti28     Ti46    10.001   1_556     S
Ti28     Ti30    10.001   .     S
Ce29     Er119    10.0   .     S
Ce29     Er120    10.0   .     S
Ce29     Ti30    9.999   .     S
Ti30     Ti38    10.001   1_556     S
Ti30     Ti34    10.001   1_556     S
Ti30     Ti32    10.001   .     S
Ce31     Er179    10.0   .     S
Ce31     Er180    10.0   .     S
Ce31     Ti32    9.999   .     S
Ti32     Ti34    10.001   1_556     S
Ti32     Ti44    10.001   1_556     S
Ce33     Er132    10.0   1_554     S
Ce33     Er131    10.0   .     S
Ce33     Ti34    9.999   .     S
Ti34     Ti30    10.001   1_554     S
Ti34     Ti32    10.001   1_554     S
Ti34     Ti36    10.001   .     S
Ti34     Ti40    10.001   .     S
Ce35     Er162    10.0   .     S
Ce35     Er161    10.0   .     S
Ce35     Ti36    9.999   .     S
Ti36     Ti40    10.001   .     S
Ti36     Ti44    10.001   .     S
Ti36     Ti48    10.001   .     S
Ce37     Er76    10.0   1_554     S
Ce37     Er75    10.0   .     S
Ce37     Ti38    9.999   .     S
Ti38     Ti28    10.001   1_554     S
Ti38     Ti30    10.001   1_554     S
Ti38     Ti42    10.001   .     S
Ti38     Ti40    10.001   .     S
Ce39     Er100    10.0   .     S
Ce39     Er99    10.0   .     S
Ce39     Ti40    9.999   .     S
Ti40     Ti42    10.001   .     S
Ce41     Er259    10.0   .     S
Ce41     Er260    10.0   .     S
Ce41     Ti42    9.999   .     S
Ti42     Ti48    10.001   .     S
Ti42     Ti46    10.001   .     S
Ce43     Er203    10.0   .     S
Ce43     Er204    10.0   1_554     S
Ce43     Ti44    9.999   .     S
Ti44     Ti26    10.001   1_554     S
Ti44     Ti32    10.001   1_554     S
Ti44     Ti48    10.001   .     S
Ce45     Er156    10.0   1_554     S
Ce45     Er155    10.0   .     S
Ce45     Ti46    9.999   .     S
Ti46     Ti26    10.001   1_554     S
Ti46     Ti28    10.001   1_554     S
Ti46     Ti48    10.001   .     S
Ce47     Er169    10.0   .     S
Ce47     Er170    10.0   .     S
Ce47     Ti48    9.999   .     S
Ce49     Er188    10.0   .     S
Ce49     Er187    10.0   .     S
Ce49     Ti50    9.999   .     S
Ti50     Ti64    10.001   1_565     S
Ti50     Ti68    10.001   1_565     S
Ti50     Ti52    10.001   .     S
Ti50     Ti56    10.001   .     S
Ce51     Er175    10.0   .     S
Ce51     Er176    10.0   .     S
Ce51     Ti52    9.999   .     S
Ti52     Ti60    10.001   1_565     S
Ti52     Ti64    10.001   1_565     S
Ti52     Ti54    10.001   .     S
Ce53     Er240    10.0   .     S
Ce53     Er239    10.0   .     S
Ce53     Ti54    9.999   .     S
Ti54     Ti60    10.001   1_565     S
Ti54     Ti70    10.001   1_565     S
Ti54     Ti56    10.001   .     S
Ce55     Er200    10.0   .     S
Ce55     Er199    10.0   .     S
Ce55     Ti56    9.999   .     S
Ti56     Ti70    10.001   1_565     S
Ti56     Ti68    10.001   1_565     S
Ce57     Er108    10.0   .     S
Ce57     Er107    10.0   .     S
Ce57     Ti58    9.999   .     S
Ti58     Ti60    10.001   .     S
Ti58     Ti62    10.001   .     S
Ti58     Ti72    10.001   .     S
Ti58     Ti70    10.001   .     S
Ce59     Er84    10.0   1_545     S
Ce59     Er83    10.0   .     S
Ce59     Ti60    9.999   .     S
Ti60     Ti52    10.001   1_545     S
Ti60     Ti54    10.001   1_545     S
Ti60     Ti62    10.001   .     S
Ce61     Er104    10.0   .     S
Ce61     Er103    10.0   .     S
Ce61     Ti62    9.999   .     S
Ti62     Ti66    10.001   .     S
Ti62     Ti64    10.001   .     S
Ce63     Er243    10.0   .     S
Ce63     Er244    10.0   1_545     S
Ce63     Ti64    9.999   .     S
Ti64     Ti50    10.001   1_545     S
Ti64     Ti52    10.001   1_545     S
Ti64     Ti66    10.001   .     S
Ce65     Er121    10.0   .     S
Ce65     Er122    10.0   .     S
Ce65     Ti66    9.999   .     S
Ti66     Ti68    10.001   .     S
Ti66     Ti72    10.001   .     S
Ce67     Er212    10.0   1_545     S
Ce67     Er211    10.0   .     S
Ce67     Ti68    9.999   .     S
Ti68     Ti50    10.001   1_545     S
Ti68     Ti56    10.001   1_545     S
Ti68     Ti72    10.001   .     S
Ce69     Er147    10.0   .     S
Ce69     Er148    10.0   1_545     S
Ce69     Ti70    9.999   .     S
Ti70     Ti54    10.001   1_545     S
Ti70     Ti56    10.001   1_545     S
Ti70     Ti72    10.001   .     S
Ce71     Er113    10.0   .     S
Ce71     Er114    10.0   .     S
Ce71     Ti72    9.999   .     S
V73     Er75    10.0   .     S
V73     V74    9.999   .     S
V73     V261    10.001   .     S
V73     V97    10.001   .     S
V74     Er79    10.0   .     S
V74     V82    10.001   .     S
V74     V90    10.001   .     S
Er75     Er76    10.0   1_554     S
Er76     Ce37    10.0   1_556     S
Er76     Er75    10.0   1_556     S
Er76     V77    10.0   .     S
V77     V78    9.999   .     S
V77     V116    10.001   .     S
V77     V228    10.001   .     S
V78     Er80    10.0   .     S
V78     V138    10.001   .     S
V78     V146    10.001   .     S
Er79     Er80    10.0   1_554     S
Er80     Ce7    10.0   1_556     S
Er80     Er79    10.0   1_556     S
V81     Er83    10.0   .     S
V81     V82    9.999   .     S
V81     V98    10.001   .     S
V81     V105    10.001   .     S
V82     Er87    10.0   .     S
V82     V90    10.001   .     S
Er83     Er84    10.0   1_545     S
Er84     Ce59    10.0   1_565     S
Er84     Er83    10.0   1_565     S
Er84     V85    10.0   .     S
V85     V86    9.999   .     S
V85     V173    10.001   .     S
V85     V237    10.001   .     S
V86     Er88    10.0   .     S
V86     V153    10.001   .     S
V86     V249    10.001   .     S
Er87     Er88    10.0   1_545     S
Er88     Ce9    10.0   1_565     S
Er88     Er87    10.0   1_565     S
V89     Er91    10.0   .     S
V89     V90    9.999   .     S
V89     V262    10.001   .     S
V89     V106    10.001   .     S
V90     Er95    10.0   .     S
Er91     Er92    10.0   1_455     S
Er91     Ce275    10.0   .     S
Er92     Er91    10.0   1_655     S
Er92     V93    10.0   .     S
Er92     Ce275    10.0   1_655     S
V93     V94    9.999   .     S
V93     V124    10.001   .     S
V93     V164    10.001   .     S
V94     Er96    10.0   .     S
V94     V130    10.001   .     S
V94     V242    10.001   .     S
Er95     Er96    10.0   1_455     S
Er96     Ce11    10.0   1_655     S
Er96     Er95    10.0   1_655     S
V97     Er100    10.0   .     S
V97     V98    9.999   .     S
V97     V261    10.001   .     S
V98     Er104    10.0   .     S
V98     V105    10.001   .     S
Er99     Er100    10.0   .     S
Er99     V101    10.0   .     S
V101     V102    9.999   .     S
V101     V129    10.001   .     S
V101     V163    10.001   .     S
V102     Er103    10.0   .     S
V102     V241    10.001   .     S
V102     V123    10.001   .     S
Er103     Er104    10.0   .     S
V105     Er108    10.0   .     S
V105     V106    9.999   .     S
V106     Er112    10.0   .     S
V106     V262    10.001   .     S
Er107     Er108    10.0   .     S
Er107     V109    10.0   .     S
V109     V110    9.999   .     S
V109     V145    10.001   .     S
V109     V115    10.001   .     S
V110     Er111    10.0   .     S
V110     V137    10.001   .     S
V110     V227    10.001   .     S
Er111     Er112    10.0   .     S
Er111     Ce273    10.0   .     S
Er112     Ce273    10.0   .     S
Er113     Er114    10.0   .     S
Er113     V118    10.0   .     S
Er114     V115    10.0   .     S
V115     V116    9.999   .     S
V115     V145    10.001   .     S
V116     Er120    10.0   .     S
V116     V228    10.001   .     S
V117     Er119    10.0   .     S
V117     V118    9.999   .     S
V117     V133    10.001   .     S
V117     V177    10.001   .     S
V118     V125    10.001   .     S
V118     V209    10.001   .     S
Er119     Er120    10.0   .     S
Er121     Er122    10.0   .     S
Er121     V125    10.0   .     S
Er122     V123    10.0   .     S
V123     V124    9.999   .     S
V123     V241    10.001   .     S
V124     Er128    10.0   .     S
V124     V164    10.001   .     S
V125     V126    9.999   .     S
V125     V209    10.001   .     S
V126     Er127    10.0   .     S
V126     V141    10.001   .     S
V126     V178    10.001   .     S
Er127     Er128    10.0   .     S
Er127     Ce269    10.0   .     S
Er128     Ce269    10.0   .     S
V129     Er131    10.0   .     S
V129     V130    9.999   .     S
V129     V163    10.001   .     S
V130     Er135    10.0   .     S
V130     V242    10.001   .     S
Er131     Er132    10.0   1_554     S
Er132     Ce33    10.0   1_556     S
Er132     Er131    10.0   1_556     S
Er132     V133    10.0   .     S
V133     V134    9.999   .     S
V133     V177    10.001   .     S
V134     Er136    10.0   .     S
V134     V142    10.001   .     S
V134     V210    10.001   .     S
Er135     Er136    10.0   1_554     S
Er136     Ce13    10.0   1_556     S
Er136     Er135    10.0   1_556     S
V137     Er139    10.0   .     S
V137     V138    9.999   .     S
V137     V227    10.001   .     S
V138     Er143    10.0   .     S
V138     V146    10.001   .     S
Er139     Er140    10.0   1_455     S
Er139     Ce285    10.0   .     S
Er140     Er139    10.0   1_655     S
Er140     V141    10.0   .     S
Er140     Ce285    10.0   1_655     S
V141     V142    9.999   .     S
V141     V178    10.001   .     S
V142     Er144    10.0   .     S
V142     V210    10.001   .     S
Er143     Er144    10.0   1_455     S
Er144     Ce15    10.0   1_655     S
Er144     Er143    10.0   1_655     S
V145     Er147    10.0   .     S
V145     V146    9.999   .     S
V146     Er151    10.0   .     S
Er147     Er148    10.0   1_545     S
Er148     Ce69    10.0   1_565     S
Er148     Er147    10.0   1_565     S
Er148     V149    10.0   .     S
V149     V150    9.999   .     S
V149     V198    10.001   .     S
V149     V236    10.001   .     S
V150     Er152    10.0   .     S
V150     V158    10.001   .     S
V150     V217    10.001   .     S
Er151     Er152    10.0   1_545     S
Er152     Ce17    10.0   1_565     S
Er152     Er151    10.0   1_565     S
V153     Er159    10.0   .     S
V153     V154    9.999   .     S
V153     V249    10.001   .     S
V154     Er155    10.0   .     S
V154     V257    10.001   .     S
V154     V174    10.001   .     S
Er155     Er156    10.0   1_554     S
Er156     Ce45    10.0   1_556     S
Er156     Er155    10.0   1_556     S
Er156     V157    10.0   .     S
V157     V158    9.999   .     S
V157     V197    10.001   .     S
V157     V229    10.001   .     S
V158     Er160    10.0   .     S
V158     V217    10.001   .     S
Er159     Er160    10.0   1_554     S
Er160     Ce19    10.0   1_556     S
Er160     Er159    10.0   1_556     S
Er161     Er162    10.0   .     S
Er161     V166    10.0   .     S
Er162     V163    10.0   .     S
V163     V164    9.999   .     S
V164     Er168    10.0   .     S
V165     Er167    10.0   .     S
V165     V166    9.999   .     S
V165     V253    10.001   .     S
V165     V186    10.001   .     S
V166     V171    10.001   .     S
V166     V201    10.001   .     S
Er167     Er168    10.0   .     S
Er167     Ce267    10.0   .     S
Er168     Ce267    10.0   .     S
Er169     Er170    10.0   .     S
Er169     V171    10.0   .     S
Er170     V174    10.0   .     S
V171     V172    9.999   .     S
V171     V201    10.001   .     S
V172     Er175    10.0   .     S
V172     V245    10.001   .     S
V172     V185    10.001   .     S
V173     Er176    10.0   .     S
V173     V174    9.999   .     S
V173     V237    10.001   .     S
V174     V257    10.001   .     S
Er175     Er176    10.0   .     S
V177     Er180    10.0   .     S
V177     V178    9.999   .     S
V178     Er184    10.0   .     S
Er179     Er180    10.0   .     S
Er179     V181    10.0   .     S
V181     V182    9.999   .     S
V181     V205    10.001   .     S
V181     V193    10.001   .     S
V182     Er183    10.0   .     S
V182     V221    10.001   .     S
V182     V189    10.001   .     S
Er183     Er184    10.0   .     S
Er183     Ce271    10.0   .     S
Er184     Ce271    10.0   .     S
V185     Er188    10.0   .     S
V185     V186    9.999   .     S
V185     V245    10.001   .     S
V186     Er192    10.0   .     S
V186     V253    10.001   .     S
Er187     Er188    10.0   .     S
Er187     V190    10.0   .     S
V189     Er191    10.0   .     S
V189     V190    9.999   .     S
V189     V221    10.001   .     S
V190     V213    10.001   .     S
V190     V194    10.001   .     S
Er191     Er192    10.0   .     S
Er191     Ce265    10.0   .     S
Er192     Ce265    10.0   .     S
V193     Er195    10.0   .     S
V193     V194    9.999   .     S
V193     V205    10.001   .     S
V194     Er199    10.0   .     S
V194     V213    10.001   .     S
Er195     Er196    10.0   .     S
Er196     V197    10.0   .     S
V197     V198    9.999   .     S
V197     V229    10.001   .     S
V198     Er200    10.0   .     S
V198     V236    10.001   .     S
Er199     Er200    10.0   .     S
V201     Er203    10.0   .     S
V201     V202    9.999   .     S
V202     Er207    10.0   .     S
V202     V246    10.001   .     S
V202     V254    10.001   .     S
Er203     Er204    10.0   1_554     S
Er204     Ce43    10.0   1_556     S
Er204     Er203    10.0   1_556     S
Er204     V205    10.0   .     S
V205     V206    9.999   .     S
V206     Er208    10.0   .     S
V206     V222    10.001   .     S
V206     V214    10.001   .     S
Er207     Er208    10.0   1_554     S
Er208     Ce1    10.0   1_556     S
Er208     Er207    10.0   1_556     S
V209     Er211    10.0   .     S
V209     V210    9.999   .     S
V210     Er215    10.0   .     S
Er211     Er212    10.0   1_545     S
Er212     Ce67    10.0   1_565     S
Er212     Er211    10.0   1_565     S
Er212     V213    10.0   .     S
V213     V214    9.999   .     S
V214     Er216    10.0   .     S
V214     V222    10.001   .     S
Er215     Er216    10.0   1_545     S
Er216     Ce3    10.0   1_565     S
Er216     Er215    10.0   1_565     S
V217     Er223    10.0   .     S
V217     V218    9.999   .     S
V218     Er219    10.0   .     S
V218     V230    10.001   .     S
V218     V235    10.001   .     S
Er219     Er220    10.0   1_455     S
Er219     Ce283    10.0   .     S
Er220     Er219    10.0   1_655     S
Er220     V221    10.0   .     S
Er220     Ce283    10.0   1_655     S
V221     V222    9.999   .     S
V222     Er224    10.0   .     S
Er223     Er224    10.0   1_455     S
Er224     Ce5    10.0   1_655     S
Er224     Er223    10.0   1_655     S
Er225     Er226    10.0   .     S
Er225     V230    10.0   .     S
Er225     Ce287    10.0   .     S
Er226     V227    10.0   .     S
Er226     Ce287    10.0   .     S
V227     V228    9.999   .     S
V228     Er232    10.0   .     S
V229     Er231    10.0   .     S
V229     V230    9.999   .     S
V230     V235    10.001   .     S
Er231     Er232    10.0   .     S
Er233     Er234    10.0   .     S
Er233     V235    10.0   .     S
Er233     Ce281    10.0   .     S
Er234     V238    10.0   .     S
Er234     Ce281    10.0   .     S
V235     V236    9.999   .     S
V236     Er239    10.0   .     S
V237     Er240    10.0   .     S
V237     V238    9.999   .     S
V238     V258    10.001   .     S
V238     V250    10.001   .     S
Er239     Er240    10.0   .     S
V241     Er243    10.0   .     S
V241     V242    9.999   .     S
V242     Er247    10.0   .     S
Er243     Er244    10.0   1_545     S
Er244     Ce63    10.0   1_565     S
Er244     Er243    10.0   1_565     S
Er244     V245    10.0   .     S
V245     V246    9.999   .     S
V246     Er248    10.0   .     S
V246     V254    10.001   .     S
Er247     Er248    10.0   1_545     S
Er248     Ce23    10.0   1_565     S
Er248     Er247    10.0   1_565     S
V249     Er255    10.0   .     S
V249     V250    9.999   .     S
V250     Er251    10.0   .     S
V250     V258    10.001   .     S
Er251     Er252    10.0   1_455     S
Er251     Ce279    10.0   .     S
Er252     Er251    10.0   1_655     S
Er252     V253    10.0   .     S
Er252     Ce279    10.0   1_655     S
V253     V254    9.999   .     S
V254     Er256    10.0   .     S
Er255     Er256    10.0   1_455     S
Er256     Ce21    10.0   1_655     S
Er256     Er255    10.0   1_655     S
V257     Er259    10.0   .     S
V257     V258    9.999   .     S
V258     Er263    10.0   .     S
Er259     Er260    10.0   .     S
Er260     V261    10.0   .     S
V261     V262    9.999   .     S
V262     Er264    10.0   .     S
Er263     Er264    10.0   .     S
Er263     Ce277    10.0   .     S
Er264     Ce277    10.0   .     S
Ce265     Ti266    9.999   .     S
Ti266     Ti280    10.001   1_655     S
Ti266     Ti284    10.001   1_655     S
Ti266     Ti268    10.001   .     S
Ti266     Ti272    10.001   .     S
Ce267     Ti268    9.999   .     S
Ti268     Ti276    10.001   1_655     S
Ti268     Ti280    10.001   1_655     S
Ti268     Ti270    10.001   .     S
Ce269     Ti270    9.999   .     S
Ti270     Ti276    10.001   1_655     S
Ti270     Ti286    10.001   1_655     S
Ti270     Ti272    10.001   .     S
Ce271     Ti272    9.999   .     S
Ti272     Ti286    10.001   1_655     S
Ti272     Ti284    10.001   1_655     S
Ce273     Ti274    9.999   .     S
Ti274     Ti278    10.001   .     S
Ti274     Ti276    10.001   .     S
Ti274     Ti286    10.001   .     S
Ti274     Ti288    10.001   .     S
Ce275     Er92    10.0   1_455     S
Ce275     Ti276    9.999   .     S
Ti276     Ti268    10.001   1_455     S
Ti276     Ti270    10.001   1_455     S
Ti276     Ti278    10.001   .     S
Ce277     Ti278    9.999   .     S
Ti278     Ti280    10.001   .     S
Ti278     Ti282    10.001   .     S
Ce279     Er252    10.0   1_455     S
Ce279     Ti280    9.999   .     S
Ti280     Ti266    10.001   1_455     S
Ti280     Ti268    10.001   1_455     S
Ti280     Ti282    10.001   .     S
Ce281     Ti282    9.999   .     S
Ti282     Ti284    10.001   .     S
Ti282     Ti288    10.001   .     S
Ce283     Er220    10.0   1_455     S
Ce283     Ti284    9.999   .     S
Ti284     Ti266    10.001   1_455     S
Ti284     Ti272    10.001   1_455     S
Ti284     Ti288    10.001   .     S
Ce285     Er140    10.0   1_455     S
Ce285     Ti286    9.999   .     S
Ti286     Ti270    10.001   1_455     S
Ti286     Ti272    10.001   1_455     S
Ti286     Ti288    10.001   .     S
Ce287     Ti288    9.999   .     S
