data_uta
_audit_creation_date              2020-02-02
_audit_creation_method            'Pymatgen'
_symmetry_space_group_name_H-M    'P1'
_symmetry_Int_Tables_number       1
loop_
_symmetry_equiv_pos_as_xyz
  x,y,z
_cell_length_a                    68.2842
_cell_length_b                    68.2842
_cell_length_c                    68.2842
_cell_angle_alpha                 90.0
_cell_angle_beta                 90.0
_cell_angle_gamma                 90.0
loop_
_atom_site_label
_atom_site_type_symbol
_atom_site_fract_x
_atom_site_fract_y
_atom_site_fract_z
V1     V     0.0732   0.6768   0.8232
V2     V     0.9268   0.6768   0.8232
V3     V     0.9268   0.6768   0.6768
V4     V     0.9268   0.8232   0.6768
V5     V     0.0732   0.8232   0.6768
V6     V     0.0732   0.8232   0.8232
V7     V     0.6768   0.9268   0.8232
V8     V     0.6768   0.0732   0.8232
V9     V     0.8232   0.0732   0.8232
V10     V     0.6768   0.9268   0.6768
V11     V     0.8232   0.9268   0.6768
V12     V     0.8232   0.0732   0.6768
V13     V     0.8232   0.8232   0.0732
V14     V     0.8232   0.6768   0.9268
V15     V     0.6768   0.6768   0.9268
V16     V     0.8232   0.6768   0.0732
V17     V     0.6768   0.8232   0.0732
V18     V     0.6768   0.8232   0.9268
V19     V     0.8232   0.4268   0.1768
V20     V     0.6768   0.4268   0.1768
V21     V     0.8232   0.5732   0.1768
V22     V     0.6768   0.5732   0.3232
V23     V     0.8232   0.5732   0.3232
V24     V     0.6768   0.4268   0.3232
V25     V     0.8232   0.1768   0.5732
V26     V     0.8232   0.3232   0.5732
V27     V     0.6768   0.3232   0.5732
V28     V     0.6768   0.1768   0.4268
V29     V     0.8232   0.1768   0.4268
V30     V     0.6768   0.3232   0.4268
V31     V     0.5732   0.3232   0.6768
V32     V     0.5732   0.3232   0.8232
V33     V     0.5732   0.1768   0.8232
V34     V     0.4268   0.1768   0.8232
V35     V     0.4268   0.1768   0.6768
V36     V     0.4268   0.3232   0.6768
V37     V     0.5732   0.5732   0.9268
V38     V     0.4268   0.5732   0.9268
V39     V     0.4268   0.5732   0.0732
V40     V     0.4268   0.4268   0.0732
V41     V     0.5732   0.4268   0.0732
V42     V     0.5732   0.4268   0.9268
V43     V     0.5732   0.9268   0.5732
V44     V     0.4268   0.9268   0.5732
V45     V     0.4268   0.0732   0.5732
V46     V     0.5732   0.0732   0.4268
V47     V     0.5732   0.9268   0.4268
V48     V     0.4268   0.0732   0.4268
V49     V     0.1768   0.6768   0.4268
V50     V     0.3232   0.8232   0.5732
V51     V     0.1768   0.8232   0.5732
V52     V     0.1768   0.8232   0.4268
V53     V     0.3232   0.6768   0.5732
V54     V     0.3232   0.6768   0.4268
V55     V     0.5732   0.8232   0.3232
V56     V     0.4268   0.6768   0.3232
V57     V     0.5732   0.6768   0.3232
V58     V     0.4268   0.6768   0.1768
V59     V     0.5732   0.8232   0.1768
V60     V     0.4268   0.8232   0.1768
V61     V     0.1768   0.3232   0.9268
V62     V     0.3232   0.3232   0.0732
V63     V     0.3232   0.1768   0.9268
V64     V     0.3232   0.1768   0.0732
V65     V     0.1768   0.3232   0.0732
V66     V     0.1768   0.1768   0.9268
V67     V     0.3232   0.9268   0.1768
V68     V     0.1768   0.9268   0.1768
V69     V     0.3232   0.0732   0.1768
V70     V     0.3232   0.0732   0.3232
V71     V     0.1768   0.9268   0.3232
V72     V     0.1768   0.0732   0.3232
V73     V     0.1768   0.4268   0.6768
V74     V     0.3232   0.4268   0.6768
V75     V     0.3232   0.5732   0.6768
V76     V     0.1768   0.4268   0.8232
V77     V     0.3232   0.5732   0.8232
V78     V     0.1768   0.5732   0.8232
V79     V     0.9268   0.9268   0.0732
V80     V     0.9268   0.0732   0.0732
V81     V     0.0732   0.9268   0.0732
V82     V     0.9268   0.0732   0.9268
V83     V     0.0732   0.9268   0.9268
V84     V     0.0732   0.0732   0.9268
V85     V     0.9268   0.3232   0.1768
V86     V     0.0732   0.3232   0.1768
V87     V     0.9268   0.1768   0.1768
V88     V     0.9268   0.1768   0.3232
V89     V     0.0732   0.1768   0.3232
V90     V     0.0732   0.3232   0.3232
V91     V     0.0732   0.4268   0.4268
V92     V     0.0732   0.5732   0.4268
V93     V     0.9268   0.5732   0.4268
V94     V     0.9268   0.5732   0.5732
V95     V     0.9268   0.4268   0.5732
V96     V     0.0732   0.4268   0.5732
loop_
_geom_bond_atom_site_label_1
_geom_bond_atom_site_label_2
_geom_bond_distance
_geom_bond_site_symmetry_2
_ccdc_geom_bond_type
V1     V2    10.0   1_455     S
V1     V6    10.0   .     S
V1     V78    10.001   .     S
V2     V1    10.0   1_655     S
V2     V3    10.0   .     S
V2     V14    10.001   .     S
V3     V4    10.0   .     S
V3     V94    10.001   .     S
V4     V5    10.0   1_655     S
V4     V11    10.001   .     S
V5     V4    10.0   1_455     S
V5     V6    10.0   .     S
V5     V51    10.001   .     S
V6     V83    10.001   .     S
V7     V8    10.0   1_565     S
V7     V10    10.0   .     S
V7     V18    10.001   .     S
V8     V7    10.0   1_545     S
V8     V9    10.0   .     S
V8     V33    10.001   .     S
V9     V12    10.0   .     S
V9     V82    10.001   .     S
V10     V11    10.0   .     S
V10     V43    10.001   .     S
V11     V12    10.0   1_565     S
V12     V11    10.0   1_545     S
V12     V25    10.001   .     S
V13     V16    10.0   .     S
V13     V17    10.0   .     S
V13     V79    10.001   .     S
V14     V15    10.0   .     S
V14     V16    10.0   1_556     S
V15     V18    10.0   .     S
V15     V37    10.001   .     S
V16     V14    10.0   1_554     S
V16     V21    10.001   .     S
V17     V18    10.0   1_554     S
V17     V59    10.001   .     S
V18     V17    10.0   1_556     S
V19     V21    10.0   .     S
V19     V20    10.0   .     S
V19     V85    10.001   .     S
V20     V24    10.0   .     S
V20     V41    10.001   .     S
V21     V23    10.0   .     S
V22     V24    10.0   .     S
V22     V23    10.0   .     S
V22     V57    10.001   .     S
V23     V93    10.001   .     S
V24     V30    10.001   .     S
V25     V29    10.0   .     S
V25     V26    10.0   .     S
V26     V27    10.0   .     S
V26     V95    10.001   .     S
V27     V30    10.0   .     S
V27     V31    10.001   .     S
V28     V29    10.0   .     S
V28     V30    10.0   .     S
V28     V46    10.001   .     S
V29     V88    10.001   .     S
V31     V36    10.0   .     S
V31     V32    10.0   .     S
V32     V33    10.0   .     S
V32     V42    10.001   .     S
V33     V34    10.0   .     S
V34     V35    10.0   .     S
V34     V63    10.001   .     S
V35     V36    10.0   .     S
V35     V45    10.001   .     S
V36     V74    10.001   .     S
V37     V42    10.0   .     S
V37     V38    10.0   .     S
V38     V39    10.0   1_556     S
V38     V77    10.001   .     S
V39     V38    10.0   1_554     S
V39     V40    10.0   .     S
V39     V58    10.001   .     S
V40     V41    10.0   .     S
V40     V62    10.001   .     S
V41     V42    10.0   1_554     S
V42     V41    10.0   1_556     S
V43     V44    10.0   .     S
V43     V47    10.0   .     S
V44     V45    10.0   1_565     S
V44     V50    10.001   .     S
V45     V44    10.0   1_545     S
V45     V48    10.0   .     S
V46     V48    10.0   .     S
V46     V47    10.0   1_545     S
V47     V46    10.0   1_565     S
V47     V55    10.001   .     S
V48     V70    10.001   .     S
V49     V54    10.0   .     S
V49     V52    10.0   .     S
V49     V92    10.001   .     S
V50     V51    10.0   .     S
V50     V53    10.0   .     S
V51     V52    10.0   .     S
V52     V71    10.001   .     S
V53     V54    10.0   .     S
V53     V75    10.001   .     S
V54     V56    10.001   .     S
V55     V59    10.0   .     S
V55     V57    10.0   .     S
V56     V57    10.0   .     S
V56     V58    10.0   .     S
V58     V60    10.0   .     S
V59     V60    10.0   .     S
V60     V67    10.001   .     S
V61     V65    10.0   1_556     S
V61     V66    10.0   .     S
V61     V76    10.001   .     S
V62     V65    10.0   .     S
V62     V64    10.0   .     S
V63     V64    10.0   1_556     S
V63     V66    10.0   .     S
V64     V63    10.0   1_554     S
V64     V69    10.001   .     S
V65     V61    10.0   1_554     S
V65     V86    10.001   .     S
V66     V84    10.001   .     S
V67     V69    10.0   1_565     S
V67     V68    10.0   .     S
V68     V71    10.0   .     S
V68     V81    10.001   .     S
V69     V67    10.0   1_545     S
V69     V70    10.0   .     S
V70     V72    10.0   .     S
V71     V72    10.0   1_565     S
V72     V71    10.0   1_545     S
V72     V89    10.001   .     S
V73     V74    10.0   .     S
V73     V76    10.0   .     S
V73     V96    10.001   .     S
V74     V75    10.0   .     S
V75     V77    10.0   .     S
V76     V78    10.0   .     S
V77     V78    10.0   .     S
V79     V80    10.0   1_565     S
V79     V81    10.0   1_655     S
V80     V79    10.0   1_545     S
V80     V82    10.0   1_554     S
V80     V87    10.001   .     S
V81     V79    10.0   1_455     S
V81     V83    10.0   1_554     S
V82     V84    10.0   1_655     S
V82     V80    10.0   1_556     S
V83     V84    10.0   1_565     S
V83     V81    10.0   1_556     S
V84     V82    10.0   1_455     S
V84     V83    10.0   1_545     S
V85     V86    10.0   1_655     S
V85     V87    10.0   .     S
V86     V85    10.0   1_455     S
V86     V90    10.0   .     S
V87     V88    10.0   .     S
V88     V89    10.0   1_655     S
V89     V88    10.0   1_455     S
V89     V90    10.0   .     S
V90     V91    10.001   .     S
V91     V96    10.0   .     S
V91     V92    10.0   .     S
V92     V93    10.0   1_455     S
V93     V92    10.0   1_655     S
V93     V94    10.0   .     S
V94     V95    10.0   .     S
V95     V96    10.0   1_655     S
V96     V95    10.0   1_455     S
