data_utj
_audit_creation_date              2020-02-02
_audit_creation_method            'Pymatgen'
_symmetry_space_group_name_H-M    'P1'
_symmetry_Int_Tables_number       1
loop_
_symmetry_equiv_pos_as_xyz
  x,y,z
_cell_length_a                    36.3086
_cell_length_b                    36.3086
_cell_length_c                    25.456
_cell_angle_alpha                 90.0
_cell_angle_beta                 90.0
_cell_angle_gamma                 90.0
loop_
_atom_site_label
_atom_site_type_symbol
_atom_site_fract_x
_atom_site_fract_y
_atom_site_fract_z
V1     V     0.9616   0.8779   0.0726
V2     V     0.9616   0.6221   0.9274
V3     V     0.6221   0.5384   0.4274
V4     V     0.8779   0.5384   0.5726
V5     V     0.5384   0.6221   0.0726
V6     V     0.5384   0.8779   0.9274
V7     V     0.8779   0.9616   0.4274
V8     V     0.6221   0.9616   0.5726
V9     V     0.1221   0.0384   0.5726
V10     V     0.3779   0.0384   0.4274
V11     V     0.4616   0.1221   0.0726
V12     V     0.4616   0.3779   0.9274
V13     V     0.1221   0.4616   0.4274
V14     V     0.3779   0.4616   0.5726
V15     V     0.0384   0.3779   0.0726
V16     V     0.0384   0.1221   0.9274
loop_
_geom_bond_atom_site_label_1
_geom_bond_atom_site_label_2
_geom_bond_distance
_geom_bond_site_symmetry_2
_ccdc_geom_bond_type
V1     V2    10.0   1_554     S
V1     V7    10.0   .     S
V1     V16    10.0   1_664     S
V2     V1    10.0   1_556     S
V2     V4    10.0   .     S
V2     V15    10.0   1_656     S
V3     V4    10.0   .     S
V3     V5    10.0   .     S
V3     V14    10.0   .     S
V4     V13    10.0   1_655     S
V5     V6    10.0   1_554     S
V5     V12    10.0   1_554     S
V6     V5    10.0   1_556     S
V6     V8    10.0   .     S
V6     V11    10.0   1_566     S
V7     V8    10.0   .     S
V7     V9    10.0   1_665     S
V8     V10    10.0   1_565     S
V9     V10    10.0   .     S
V9     V16    10.0   .     S
V9     V7    10.0   1_445     S
V10     V11    10.0   .     S
V10     V8    10.0   1_545     S
V11     V12    10.0   1_554     S
V11     V6    10.0   1_544     S
V12     V11    10.0   1_556     S
V12     V14    10.0   .     S
V12     V5    10.0   1_556     S
V13     V14    10.0   .     S
V13     V15    10.0   .     S
V13     V4    10.0   1_455     S
V15     V16    10.0   1_554     S
V15     V2    10.0   1_454     S
V16     V15    10.0   1_556     S
V16     V1    10.0   1_446     S
