data_uty
_audit_creation_date              2020-02-02
_audit_creation_method            'Pymatgen'
_symmetry_space_group_name_H-M    'P1'
_symmetry_Int_Tables_number       1
loop_
_symmetry_equiv_pos_as_xyz
  x,y,z
_cell_length_a                    28.5283
_cell_length_b                    28.5283
_cell_length_c                    28.5283
_cell_angle_alpha                 90.0
_cell_angle_beta                 90.0
_cell_angle_gamma                 90.0
loop_
_atom_site_label
_atom_site_type_symbol
_atom_site_fract_x
_atom_site_fract_y
_atom_site_fract_z
V1     V     0.7468   0.2468   0.2468
V2     V     0.7468   0.0032   0.0032
V3     V     0.5032   0.0032   0.2468
V4     V     0.5032   0.2468   0.0032
V5     V     0.2468   0.7468   0.2468
V6     V     0.2468   0.5032   0.0032
V7     V     0.0032   0.5032   0.2468
V8     V     0.0032   0.7468   0.0032
V9     V     0.9968   0.7532   0.4968
V10     V     0.7532   0.9968   0.4968
V11     V     0.9968   0.9968   0.2532
V12     V     0.7532   0.7532   0.2532
V13     V     0.5032   0.5032   0.7468
V14     V     0.5032   0.7468   0.5032
V15     V     0.7468   0.5032   0.5032
V16     V     0.7468   0.7468   0.7468
V17     V     0.7532   0.4968   0.9968
V18     V     0.9968   0.4968   0.7532
V19     V     0.9968   0.2532   0.9968
V20     V     0.7532   0.2532   0.7532
V21     V     0.4968   0.9968   0.7532
V22     V     0.4968   0.7532   0.9968
V23     V     0.2532   0.9968   0.9968
V24     V     0.2532   0.7532   0.7532
V25     V     0.0032   0.0032   0.7468
V26     V     0.2468   0.2468   0.7468
V27     V     0.0032   0.2468   0.5032
V28     V     0.2468   0.0032   0.5032
V29     V     0.4968   0.4968   0.2532
V30     V     0.4968   0.2532   0.4968
V31     V     0.2532   0.4968   0.4968
V32     V     0.2532   0.2532   0.2532
loop_
_geom_bond_atom_site_label_1
_geom_bond_atom_site_label_2
_geom_bond_distance
_geom_bond_site_symmetry_2
_ccdc_geom_bond_type
V1     V19    10.088   1_554     S
V1     V17    10.088   1_554     S
V1     V11    10.088   1_545     S
V1     V10    10.088   1_545     S
V1     V30    10.088   .     S
V1     V29    10.088   .     S
V1     V2    9.824   .     S
V1     V3    9.824   .     S
V1     V4    9.824   .     S
V2     V21    10.088   1_544     S
V2     V22    10.088   1_544     S
V2     V19    10.088   1_554     S
V2     V20    10.088   1_554     S
V2     V11    10.088   1_545     S
V2     V12    10.088   1_545     S
V2     V3    9.824   .     S
V2     V4    9.824   .     S
V3     V23    10.088   1_544     S
V3     V22    10.088   1_544     S
V3     V10    10.088   1_545     S
V3     V12    10.088   1_545     S
V3     V32    10.088   .     S
V3     V30    10.088   .     S
V3     V4    9.824   .     S
V4     V23    10.088   1_544     S
V4     V21    10.088   1_544     S
V4     V20    10.088   1_554     S
V4     V17    10.088   1_554     S
V4     V32    10.088   .     S
V4     V29    10.088   .     S
V5     V31    10.088   .     S
V5     V29    10.088   .     S
V5     V23    10.088   1_554     S
V5     V22    10.088   1_554     S
V5     V11    10.088   1_455     S
V5     V9    10.088   1_455     S
V5     V8    9.824   .     S
V5     V7    9.824   .     S
V5     V6    9.824   .     S
V6     V32    10.088   .     S
V6     V29    10.088   .     S
V6     V19    10.088   1_454     S
V6     V18    10.088   1_454     S
V6     V24    10.088   1_554     S
V6     V22    10.088   1_554     S
V6     V8    9.824   .     S
V6     V7    9.824   .     S
V7     V32    10.088   .     S
V7     V31    10.088   .     S
V7     V19    10.088   1_454     S
V7     V17    10.088   1_454     S
V7     V12    10.088   1_455     S
V7     V9    10.088   1_455     S
V7     V8    9.824   .     S
V8     V18    10.088   1_454     S
V8     V17    10.088   1_454     S
V8     V23    10.088   1_554     S
V8     V24    10.088   1_554     S
V8     V11    10.088   1_455     S
V8     V12    10.088   1_455     S
V9     V28    10.088   1_665     S
V9     V25    10.088   1_665     S
V9     V5    10.088   1_655     S
V9     V7    10.088   1_655     S
V9     V15    10.088   .     S
V9     V16    10.088   .     S
V9     V12    9.824   .     S
V9     V10    9.824   .     S
V9     V11    9.824   .     S
V10     V27    10.088   1_665     S
V10     V25    10.088   1_665     S
V10     V3    10.088   1_565     S
V10     V1    10.088   1_565     S
V10     V14    10.088   .     S
V10     V16    10.088   .     S
V10     V11    9.824   .     S
V10     V12    9.824   .     S
V11     V27    10.088   1_665     S
V11     V28    10.088   1_665     S
V11     V2    10.088   1_565     S
V11     V1    10.088   1_565     S
V11     V8    10.088   1_655     S
V11     V5    10.088   1_655     S
V11     V12    9.824   .     S
V12     V3    10.088   1_565     S
V12     V2    10.088   1_565     S
V12     V7    10.088   1_655     S
V12     V8    10.088   1_655     S
V12     V15    10.088   .     S
V12     V14    10.088   .     S
V13     V31    10.088   .     S
V13     V30    10.088   .     S
V13     V24    10.088   .     S
V13     V22    10.088   .     S
V13     V17    10.088   .     S
V13     V20    10.088   .     S
V13     V16    9.824   .     S
V13     V15    9.824   .     S
V13     V14    9.824   .     S
V14     V31    10.088   .     S
V14     V29    10.088   .     S
V14     V24    10.088   .     S
V14     V21    10.088   .     S
V14     V16    9.824   .     S
V14     V15    9.824   .     S
V15     V29    10.088   .     S
V15     V30    10.088   .     S
V15     V20    10.088   .     S
V15     V18    10.088   .     S
V15     V16    9.824   .     S
V16     V21    10.088   .     S
V16     V22    10.088   .     S
V16     V18    10.088   .     S
V16     V17    10.088   .     S
V17     V4    10.088   1_556     S
V17     V1    10.088   1_556     S
V17     V7    10.088   1_656     S
V17     V8    10.088   1_656     S
V17     V19    9.824   .     S
V17     V18    9.824   .     S
V17     V20    9.824   .     S
V18     V6    10.088   1_656     S
V18     V8    10.088   1_656     S
V18     V27    10.088   1_655     S
V18     V26    10.088   1_655     S
V18     V19    9.824   .     S
V18     V20    9.824   .     S
V19     V2    10.088   1_556     S
V19     V1    10.088   1_556     S
V19     V7    10.088   1_656     S
V19     V6    10.088   1_656     S
V19     V25    10.088   1_655     S
V19     V26    10.088   1_655     S
V19     V20    9.824   .     S
V20     V4    10.088   1_556     S
V20     V2    10.088   1_556     S
V20     V27    10.088   1_655     S
V20     V25    10.088   1_655     S
V21     V4    10.088   1_566     S
V21     V2    10.088   1_566     S
V21     V26    10.088   1_565     S
V21     V28    10.088   1_565     S
V21     V23    9.824   .     S
V21     V22    9.824   .     S
V21     V24    9.824   .     S
V22     V3    10.088   1_566     S
V22     V2    10.088   1_566     S
V22     V6    10.088   1_556     S
V22     V5    10.088   1_556     S
V22     V24    9.824   .     S
V22     V23    9.824   .     S
V23     V4    10.088   1_566     S
V23     V3    10.088   1_566     S
V23     V8    10.088   1_556     S
V23     V5    10.088   1_556     S
V23     V25    10.088   1_565     S
V23     V26    10.088   1_565     S
V23     V24    9.824   .     S
V24     V6    10.088   1_556     S
V24     V8    10.088   1_556     S
V24     V28    10.088   1_565     S
V24     V25    10.088   1_565     S
V25     V10    10.088   1_445     S
V25     V9    10.088   1_445     S
V25     V19    10.088   1_455     S
V25     V20    10.088   1_455     S
V25     V23    10.088   1_545     S
V25     V24    10.088   1_545     S
V25     V26    9.824   .     S
V25     V28    9.824   .     S
V25     V27    9.824   .     S
V26     V19    10.088   1_455     S
V26     V18    10.088   1_455     S
V26     V23    10.088   1_545     S
V26     V21    10.088   1_545     S
V26     V30    10.088   .     S
V26     V31    10.088   .     S
V26     V27    9.824   .     S
V26     V28    9.824   .     S
V27     V11    10.088   1_445     S
V27     V10    10.088   1_445     S
V27     V18    10.088   1_455     S
V27     V20    10.088   1_455     S
V27     V32    10.088   .     S
V27     V31    10.088   .     S
V27     V28    9.824   .     S
V28     V11    10.088   1_445     S
V28     V9    10.088   1_445     S
V28     V21    10.088   1_545     S
V28     V24    10.088   1_545     S
V28     V32    10.088   .     S
V28     V30    10.088   .     S
V29     V32    9.824   .     S
V29     V30    9.824   .     S
V29     V31    9.824   .     S
V30     V32    9.824   .     S
V30     V31    9.824   .     S
V31     V32    9.824   .     S
