data_vbl
_audit_creation_date              2020-02-02
_audit_creation_method            'Pymatgen'
_symmetry_space_group_name_H-M    'P1'
_symmetry_Int_Tables_number       1
loop_
_symmetry_equiv_pos_as_xyz
  x,y,z
_cell_length_a                    55.0638
_cell_length_b                    23.6789
_cell_length_c                    27.6222
_cell_angle_alpha                 90.0
_cell_angle_beta                 90.0
_cell_angle_gamma                 90.0
loop_
_atom_site_label
_atom_site_type_symbol
_atom_site_fract_x
_atom_site_fract_y
_atom_site_fract_z
V1     V     0.7877   0.8166   0.701
V2     V     0.9623   0.9334   0.701
V3     V     0.7877   0.9334   0.049
V4     V     0.9623   0.8166   0.049
V5     V     0.0377   0.5666   0.799
V6     V     0.2123   0.6834   0.799
V7     V     0.0377   0.6834   0.451
V8     V     0.2123   0.5666   0.451
V9     V     0.7123   0.1834   0.799
V10     V     0.5377   0.0666   0.799
V11     V     0.7123   0.0666   0.451
V12     V     0.5377   0.1834   0.451
V13     V     0.7123   0.6834   0.299
V14     V     0.5377   0.5666   0.299
V15     V     0.7123   0.5666   0.951
V16     V     0.5377   0.6834   0.951
V17     V     0.2877   0.8166   0.201
V18     V     0.4623   0.9334   0.201
V19     V     0.2877   0.9334   0.549
V20     V     0.4623   0.8166   0.549
V21     V     0.7877   0.3166   0.201
V22     V     0.9623   0.4334   0.201
V23     V     0.7877   0.4334   0.549
V24     V     0.9623   0.3166   0.549
V25     V     0.0377   0.0666   0.299
V26     V     0.2123   0.1834   0.299
V27     V     0.0377   0.1834   0.951
V28     V     0.2123   0.0666   0.951
V29     V     0.2877   0.3166   0.701
V30     V     0.4623   0.4334   0.701
V31     V     0.2877   0.4334   0.049
V32     V     0.4623   0.3166   0.049
loop_
_geom_bond_atom_site_label_1
_geom_bond_atom_site_label_2
_geom_bond_distance
_geom_bond_site_symmetry_2
_ccdc_geom_bond_type
V1     V15    10.0   .     S
V1     V2    9.999   .     S
V1     V3    10.0   1_556     S
V1     V9    10.0   1_565     S
V1     V11    10.0   1_565     S
V1     V23    10.0   .     S
V2     V5    10.0   1_655     S
V2     V7    10.0   1_655     S
V2     V4    10.0   1_556     S
V2     V27    10.0   1_665     S
V2     V24    10.0   1_565     S
V3     V15    10.0   1_554     S
V3     V13    10.0   .     S
V3     V4    9.999   .     S
V3     V1    10.0   1_554     S
V3     V9    10.0   1_564     S
V3     V21    10.0   1_565     S
V4     V5    10.0   1_654     S
V4     V2    10.0   1_554     S
V4     V27    10.0   1_664     S
V4     V25    10.0   1_665     S
V4     V22    10.0   .     S
V5     V4    10.0   1_456     S
V5     V2    10.0   1_455     S
V5     V24    10.0   1_455     S
V5     V6    9.999   .     S
V5     V7    10.0   .     S
V5     V27    10.0   .     S
V6     V19    10.0   .     S
V6     V31    10.0   1_556     S
V6     V29    10.0   .     S
V6     V8    10.0   .     S
V6     V28    10.0   1_565     S
V7     V2    10.0   1_455     S
V7     V24    10.0   1_455     S
V7     V22    10.0   1_455     S
V7     V8    9.999   .     S
V7     V25    10.0   1_565     S
V8     V19    10.0   .     S
V8     V17    10.0   .     S
V8     V29    10.0   .     S
V8     V26    10.0   .     S
V9     V3    10.0   1_546     S
V9     V1    10.0   1_545     S
V9     V23    10.0   .     S
V9     V10    9.999   .     S
V9     V11    10.0   .     S
V9     V15    10.0   .     S
V10     V20    10.0   1_545     S
V10     V12    10.0   .     S
V10     V32    10.0   1_556     S
V10     V30    10.0   .     S
V10     V16    10.0   1_545     S
V11     V1    10.0   1_545     S
V11     V23    10.0   .     S
V11     V21    10.0   .     S
V11     V12    9.999   .     S
V11     V13    10.0   1_545     S
V12     V20    10.0   1_545     S
V12     V18    10.0   1_545     S
V12     V30    10.0   .     S
V12     V14    10.0   .     S
V13     V21    10.0   .     S
V13     V23    10.0   .     S
V13     V14    9.999   .     S
V13     V15    10.0   1_554     S
V13     V11    10.0   1_565     S
V14     V16    10.0   1_554     S
V14     V32    10.0   .     S
V14     V20    10.0   .     S
V14     V18    10.0   .     S
V15     V3    10.0   1_556     S
V15     V21    10.0   1_556     S
V15     V16    9.999   .     S
V15     V13    10.0   1_556     S
V16     V14    10.0   1_556     S
V16     V30    10.0   .     S
V16     V32    10.0   1_556     S
V16     V18    10.0   1_556     S
V16     V10    10.0   1_565     S
V17     V18    9.999   .     S
V17     V19    10.0   .     S
V17     V28    10.0   1_564     S
V17     V26    10.0   1_565     S
V17     V31    10.0   .     S
V18     V12    10.0   1_565     S
V18     V16    10.0   1_554     S
V18     V20    10.0   .     S
V18     V32    10.0   1_565     S
V19     V20    9.999   .     S
V19     V26    10.0   1_565     S
V19     V29    10.0   1_565     S
V20     V10    10.0   1_565     S
V20     V12    10.0   1_565     S
V20     V30    10.0   .     S
V21     V15    10.0   1_554     S
V21     V22    9.999   .     S
V21     V23    10.0   .     S
V21     V3    10.0   1_545     S
V22     V7    10.0   1_655     S
V22     V27    10.0   1_654     S
V22     V25    10.0   1_655     S
V22     V24    10.0   .     S
V23     V24    9.999   .     S
V24     V5    10.0   1_655     S
V24     V7    10.0   1_655     S
V24     V25    10.0   1_655     S
V24     V2    10.0   1_545     S
V25     V4    10.0   1_445     S
V25     V22    10.0   1_455     S
V25     V24    10.0   1_455     S
V25     V26    9.999   .     S
V25     V27    10.0   1_554     S
V25     V7    10.0   1_545     S
V26     V17    10.0   1_545     S
V26     V19    10.0   1_545     S
V26     V28    10.0   1_554     S
V26     V31    10.0   .     S
V27     V2    10.0   1_445     S
V27     V4    10.0   1_446     S
V27     V22    10.0   1_456     S
V27     V28    9.999   .     S
V27     V25    10.0   1_556     S
V28     V17    10.0   1_546     S
V28     V26    10.0   1_556     S
V28     V29    10.0   .     S
V28     V31    10.0   1_556     S
V28     V6    10.0   1_545     S
V29     V30    9.999   .     S
V29     V31    10.0   1_556     S
V29     V19    10.0   1_545     S
V30     V32    10.0   1_556     S
V31     V6    10.0   1_554     S
V31     V28    10.0   1_554     S
V31     V32    9.999   .     S
V31     V29    10.0   1_554     S
V32     V10    10.0   1_554     S
V32     V16    10.0   1_554     S
V32     V30    10.0   1_554     S
V32     V18    10.0   1_545     S
