data_vcp
_audit_creation_date              2020-02-02
_audit_creation_method            'Pymatgen'
_symmetry_space_group_name_H-M    'P1'
_symmetry_Int_Tables_number       1
loop_
_symmetry_equiv_pos_as_xyz
  x,y,z
_cell_length_a                    38.0839
_cell_length_b                    19.1133
_cell_length_c                    19.4971
_cell_angle_alpha                 90.0
_cell_angle_beta                 90.0
_cell_angle_gamma                 90.0
loop_
_atom_site_label
_atom_site_type_symbol
_atom_site_fract_x
_atom_site_fract_y
_atom_site_fract_z
V1     V     0.878   0.9417   0.5755
V2     V     0.878   0.5583   0.9245
V3     V     0.878   0.4417   0.4245
V4     V     0.878   0.0583   0.0755
V5     V     0.122   0.9417   0.9245
V6     V     0.122   0.5583   0.5755
V7     V     0.122   0.4417   0.0755
V8     V     0.122   0.0583   0.4245
V9     V     0.622   0.0583   0.5755
V10     V     0.622   0.4417   0.9245
V11     V     0.622   0.9417   0.0755
V12     V     0.622   0.5583   0.4245
V13     V     0.378   0.4417   0.5755
V14     V     0.378   0.0583   0.9245
V15     V     0.378   0.9417   0.4245
V16     V     0.378   0.5583   0.0755
loop_
_geom_bond_atom_site_label_1
_geom_bond_atom_site_label_2
_geom_bond_distance
_geom_bond_site_symmetry_2
_ccdc_geom_bond_type
V1     V4    10.0   1_566     S
V1     V2    10.0   .     S
V1     V3    10.0   .     S
V1     V3    10.0   1_565     S
V1     V4    10.0   1_565     S
V1     V8    10.0   1_665     S
V1     V9    10.0   1_565     S
V2     V4    10.0   1_556     S
V2     V3    10.0   1_556     S
V2     V4    10.0   1_566     S
V2     V3    10.0   .     S
V2     V7    10.0   1_656     S
V2     V10    10.0   .     S
V3     V2    10.0   1_554     S
V3     V4    10.0   .     S
V3     V1    10.0   1_545     S
V3     V6    10.0   1_655     S
V3     V12    10.0   .     S
V4     V2    10.0   1_554     S
V4     V2    10.0   1_544     S
V4     V1    10.0   1_544     S
V4     V1    10.0   1_545     S
V4     V5    10.0   1_644     S
V4     V11    10.0   1_545     S
V5     V7    10.0   1_566     S
V5     V8    10.0   1_566     S
V5     V7    10.0   1_556     S
V5     V6    10.0   .     S
V5     V8    10.0   1_565     S
V5     V4    10.0   1_466     S
V5     V14    10.0   1_565     S
V6     V7    10.0   1_556     S
V6     V8    10.0   .     S
V6     V7    10.0   .     S
V6     V8    10.0   1_565     S
V6     V3    10.0   1_455     S
V6     V13    10.0   .     S
V7     V5    10.0   1_544     S
V7     V5    10.0   1_554     S
V7     V6    10.0   1_554     S
V7     V8    10.0   .     S
V7     V2    10.0   1_454     S
V7     V16    10.0   .     S
V8     V5    10.0   1_544     S
V8     V6    10.0   1_545     S
V8     V5    10.0   1_545     S
V8     V1    10.0   1_445     S
V8     V15    10.0   1_545     S
V9     V1    10.0   1_545     S
V9     V11    10.0   1_546     S
V9     V10    10.0   .     S
V9     V12    10.0   .     S
V9     V12    10.0   1_545     S
V9     V11    10.0   1_545     S
V9     V15    10.0   1_545     S
V10     V11    10.0   1_556     S
V10     V12    10.0   1_556     S
V10     V11    10.0   1_546     S
V10     V12    10.0   .     S
V10     V16    10.0   1_556     S
V11     V4    10.0   1_565     S
V11     V10    10.0   1_554     S
V11     V10    10.0   1_564     S
V11     V9    10.0   1_564     S
V11     V12    10.0   .     S
V11     V9    10.0   1_565     S
V11     V14    10.0   1_564     S
V12     V10    10.0   1_554     S
V12     V9    10.0   1_565     S
V12     V13    10.0   .     S
V13     V16    10.0   1_556     S
V13     V14    10.0   .     S
V13     V15    10.0   .     S
V13     V16    10.0   .     S
V13     V15    10.0   1_545     S
V14     V16    10.0   1_546     S
V14     V15    10.0   1_546     S
V14     V16    10.0   1_556     S
V14     V15    10.0   1_545     S
V14     V11    10.0   1_546     S
V14     V5    10.0   1_545     S
V15     V8    10.0   1_565     S
V15     V14    10.0   1_564     S
V15     V13    10.0   1_565     S
V15     V14    10.0   1_565     S
V15     V16    10.0   .     S
V15     V9    10.0   1_565     S
V16     V14    10.0   1_564     S
V16     V14    10.0   1_554     S
V16     V13    10.0   1_554     S
V16     V10    10.0   1_554     S
