data_viv
_audit_creation_date              2020-02-02
_audit_creation_method            'Pymatgen'
_symmetry_space_group_name_H-M    'P1'
_symmetry_Int_Tables_number       1
loop_
_symmetry_equiv_pos_as_xyz
  x,y,z
_cell_length_a                    40.0
_cell_length_b                    40.0
_cell_length_c                    40.0
_cell_angle_alpha                 90.0
_cell_angle_beta                 90.0
_cell_angle_gamma                 90.0
loop_
_atom_site_label
_atom_site_type_symbol
_atom_site_fract_x
_atom_site_fract_y
_atom_site_fract_z
V1     V     0.0   0.0   0.0
Er2     Er     0.0   0.0   0.25
Er3     Er     0.0   0.0   0.75
Er4     Er     0.25   0.0   0.0
Er5     Er     0.0   0.25   0.0
Er6     Er     0.75   0.0   0.0
Er7     Er     0.0   0.75   0.0
Ti8     Ti     0.0   0.25   0.25
Ce9     Ce     0.0   0.25   0.5
Ti10     Ti     0.0   0.25   0.75
Ce11     Ce     0.0   0.5   0.25
Ti12     Ti     0.0   0.75   0.25
Ce13     Ce     0.0   0.75   0.5
Ti14     Ti     0.0   0.75   0.75
Ce15     Ce     0.0   0.5   0.75
Ti16     Ti     0.75   0.5   0.75
Ce17     Ce     0.75   0.5   0.0
Ti18     Ti     0.75   0.25   0.0
Ti19     Ti     0.75   0.75   0.0
Ce20     Ce     0.5   0.75   0.0
Ti21     Ti     0.25   0.75   0.0
Ce22     Ce     0.25   0.5   0.0
Ti23     Ti     0.25   0.25   0.0
Ce24     Ce     0.5   0.25   0.0
Ti25     Ti     0.5   0.75   0.75
Ti26     Ti     0.25   0.5   0.75
Ti27     Ti     0.5   0.25   0.75
Ti28     Ti     0.5   0.25   0.25
Ti29     Ti     0.75   0.5   0.25
Ti30     Ti     0.5   0.75   0.25
Ti31     Ti     0.25   0.5   0.25
Ce32     Ce     0.5   0.0   0.75
Ti33     Ti     0.25   0.0   0.75
Ce34     Ce     0.25   0.0   0.5
Ti35     Ti     0.25   0.0   0.25
Ce36     Ce     0.5   0.0   0.25
Ti37     Ti     0.75   0.0   0.25
Ce38     Ce     0.75   0.0   0.5
Ti39     Ti     0.75   0.0   0.75
Ti40     Ti     0.75   0.75   0.5
Ti41     Ti     0.75   0.25   0.5
Ti42     Ti     0.25   0.75   0.5
Ti43     Ti     0.25   0.25   0.5
S44     S     0.25   0.25   0.25
S45     S     0.75   0.25   0.25
S46     S     0.75   0.75   0.25
S47     S     0.25   0.75   0.25
S48     S     0.25   0.75   0.75
S49     S     0.25   0.25   0.75
S50     S     0.75   0.25   0.75
S51     S     0.75   0.75   0.75
Er52     Er     0.5   0.5   0.75
V53     V     0.5   0.5   0.5
Er54     Er     0.5   0.5   0.25
Er55     Er     0.75   0.5   0.5
Er56     Er     0.5   0.75   0.5
Er57     Er     0.25   0.5   0.5
Er58     Er     0.5   0.25   0.5
loop_
_geom_bond_atom_site_label_1
_geom_bond_atom_site_label_2
_geom_bond_distance
_geom_bond_site_symmetry_2
_ccdc_geom_bond_type
V1     Er2    10.0   .     S
V1     Er3    10.0   1_554     S
V1     Er4    10.0   .     S
V1     Er5    10.0   .     S
V1     Er6    10.0   1_455     S
V1     Er7    10.0   1_545     S
Er2     Ti8    10.0   .     S
Er2     Ti37    10.0   1_455     S
Er2     Ti12    10.0   1_545     S
Er2     Ti35    10.0   .     S
Er3     V1    10.0   1_556     S
Er3     Ti14    10.0   1_545     S
Er3     Ti33    10.0   .     S
Er3     Ti10    10.0   .     S
Er3     Ti39    10.0   1_455     S
Er4     Ti35    10.0   .     S
Er4     Ti33    10.0   1_554     S
Er4     Ti23    10.0   .     S
Er4     Ti21    10.0   1_545     S
Er5     Ti8    10.0   .     S
Er5     Ti10    10.0   1_554     S
Er5     Ti23    10.0   .     S
Er5     Ti18    10.0   1_455     S
Er6     V1    10.0   1_655     S
Er6     Ti37    10.0   .     S
Er6     Ti39    10.0   1_554     S
Er6     Ti19    10.0   1_545     S
Er6     Ti18    10.0   .     S
Er7     V1    10.0   1_565     S
Er7     Ti12    10.0   .     S
Er7     Ti14    10.0   1_554     S
Er7     Ti21    10.0   .     S
Er7     Ti19    10.0   1_455     S
Ti8     Ce9    10.0   .     S
Ti8     Ce11    10.0   .     S
Ti8     S44    10.0   .     S
Ti8     S45    10.0   1_455     S
Ce9     Ti10    10.0   .     S
Ce9     Ti43    10.0   .     S
Ce9     Ti41    10.0   1_455     S
Ti10     Ce15    10.0   .     S
Ti10     S50    10.0   1_455     S
Ti10     S49    10.0   .     S
Ti10     Er5    10.0   1_556     S
Ce11     Ti12    10.0   .     S
Ce11     Ti29    10.0   1_455     S
Ce11     Ti31    10.0   .     S
Ti12     Ce13    10.0   .     S
Ti12     S46    10.0   1_455     S
Ti12     S47    10.0   .     S
Ti12     Er2    10.0   1_565     S
Ce13     Ti14    10.0   .     S
Ce13     Ti40    10.0   1_455     S
Ce13     Ti42    10.0   .     S
Ti14     Ce15    10.0   .     S
Ti14     S48    10.0   .     S
Ti14     S51    10.0   1_455     S
Ti14     Er3    10.0   1_565     S
Ti14     Er7    10.0   1_556     S
Ce15     Ti16    10.0   1_455     S
Ce15     Ti26    10.0   .     S
Ti16     Ce15    10.0   1_655     S
Ti16     Ce17    10.0   1_556     S
Ti16     S50    10.0   .     S
Ti16     S51    10.0   .     S
Ti16     Er52    10.0   .     S
Ti16     Er55    10.0   .     S
Ce17     Ti16    10.0   1_554     S
Ce17     Ti18    10.0   .     S
Ce17     Ti19    10.0   .     S
Ce17     Ti29    10.0   .     S
Ti18     Ce24    10.0   .     S
Ti18     S50    10.0   1_554     S
Ti18     S45    10.0   .     S
Ti18     Er5    10.0   1_655     S
Ti19     Ce20    10.0   .     S
Ti19     S51    10.0   1_554     S
Ti19     S46    10.0   .     S
Ti19     Er6    10.0   1_565     S
Ti19     Er7    10.0   1_655     S
Ce20     Ti21    10.0   .     S
Ce20     Ti25    10.0   1_554     S
Ce20     Ti30    10.0   .     S
Ti21     Ce22    10.0   .     S
Ti21     S48    10.0   1_554     S
Ti21     S47    10.0   .     S
Ti21     Er4    10.0   1_565     S
Ce22     Ti23    10.0   .     S
Ce22     Ti26    10.0   1_554     S
Ce22     Ti31    10.0   .     S
Ti23     Ce24    10.0   .     S
Ti23     S44    10.0   .     S
Ti23     S49    10.0   1_554     S
Ce24     Ti27    10.0   1_554     S
Ce24     Ti28    10.0   .     S
Ti25     Ce20    10.0   1_556     S
Ti25     Ce32    10.0   1_565     S
Ti25     S51    10.0   .     S
Ti25     S48    10.0   .     S
Ti25     Er52    10.0   .     S
Ti25     Er56    10.0   .     S
Ti26     Ce22    10.0   1_556     S
Ti26     S48    10.0   .     S
Ti26     S49    10.0   .     S
Ti26     Er52    10.0   .     S
Ti26     Er57    10.0   .     S
Ti27     Ce24    10.0   1_556     S
Ti27     Ce32    10.0   .     S
Ti27     S49    10.0   .     S
Ti27     S50    10.0   .     S
Ti27     Er52    10.0   .     S
Ti27     Er58    10.0   .     S
Ti28     Ce36    10.0   .     S
Ti28     S45    10.0   .     S
Ti28     S44    10.0   .     S
Ti28     Er54    10.0   .     S
Ti28     Er58    10.0   .     S
Ti29     Ce11    10.0   1_655     S
Ti29     S46    10.0   .     S
Ti29     S45    10.0   .     S
Ti29     Er54    10.0   .     S
Ti29     Er55    10.0   .     S
Ti30     Ce36    10.0   1_565     S
Ti30     S47    10.0   .     S
Ti30     S46    10.0   .     S
Ti30     Er54    10.0   .     S
Ti30     Er56    10.0   .     S
Ti31     S44    10.0   .     S
Ti31     S47    10.0   .     S
Ti31     Er54    10.0   .     S
Ti31     Er57    10.0   .     S
Ce32     Ti25    10.0   1_545     S
Ce32     Ti33    10.0   .     S
Ce32     Ti39    10.0   .     S
Ti33     Ce34    10.0   .     S
Ti33     S49    10.0   .     S
Ti33     S48    10.0   1_545     S
Ti33     Er4    10.0   1_556     S
Ce34     Ti35    10.0   .     S
Ce34     Ti42    10.0   1_545     S
Ce34     Ti43    10.0   .     S
Ti35     Ce36    10.0   .     S
Ti35     S47    10.0   1_545     S
Ti35     S44    10.0   .     S
Ce36     Ti37    10.0   .     S
Ce36     Ti30    10.0   1_545     S
Ti37     Ce38    10.0   .     S
Ti37     S45    10.0   .     S
Ti37     S46    10.0   1_545     S
Ti37     Er2    10.0   1_655     S
Ce38     Ti39    10.0   .     S
Ce38     Ti40    10.0   1_545     S
Ce38     Ti41    10.0   .     S
Ti39     S51    10.0   1_545     S
Ti39     S50    10.0   .     S
Ti39     Er3    10.0   1_655     S
Ti39     Er6    10.0   1_556     S
Ti40     Ce38    10.0   1_565     S
Ti40     Ce13    10.0   1_655     S
Ti40     S51    10.0   .     S
Ti40     S46    10.0   .     S
Ti40     Er56    10.0   .     S
Ti40     Er55    10.0   .     S
Ti41     Ce9    10.0   1_655     S
Ti41     S45    10.0   .     S
Ti41     S50    10.0   .     S
Ti41     Er58    10.0   .     S
Ti41     Er55    10.0   .     S
Ti42     Ce34    10.0   1_565     S
Ti42     S47    10.0   .     S
Ti42     S48    10.0   .     S
Ti42     Er56    10.0   .     S
Ti42     Er57    10.0   .     S
Ti43     S44    10.0   .     S
Ti43     S49    10.0   .     S
Ti43     Er57    10.0   .     S
Ti43     Er58    10.0   .     S
S45     Ti8    10.0   1_655     S
S46     Ti12    10.0   1_655     S
S46     Ti37    10.0   1_565     S
S47     Ti35    10.0   1_565     S
S48     Ti33    10.0   1_565     S
S48     Ti21    10.0   1_556     S
S49     Ti23    10.0   1_556     S
S50     Ti10    10.0   1_655     S
S50     Ti18    10.0   1_556     S
S51     Ti39    10.0   1_565     S
S51     Ti14    10.0   1_655     S
S51     Ti19    10.0   1_556     S
Er52     V53    10.0   .     S
V53     Er54    10.0   .     S
V53     Er55    10.0   .     S
V53     Er56    10.0   .     S
V53     Er57    10.0   .     S
V53     Er58    10.0   .     S
