data_viva
_audit_creation_date              2020-02-02
_audit_creation_method            'Pymatgen'
_symmetry_space_group_name_H-M    'P1'
_symmetry_Int_Tables_number       1
loop_
_symmetry_equiv_pos_as_xyz
  x,y,z
_cell_length_a                    96.5533
_cell_length_b                    96.5533
_cell_length_c                    96.5533
_cell_angle_alpha                 90.0
_cell_angle_beta                 90.0
_cell_angle_gamma                 90.0
loop_
_atom_site_label
_atom_site_type_symbol
_atom_site_fract_x
_atom_site_fract_y
_atom_site_fract_z
Er1     Er     0.5   0.3232   0.5
Ti2     Ti     0.5   0.25   0.5732
Ti3     Ti     0.5732   0.25   0.5
Ti4     Ti     0.5   0.25   0.4268
Ti5     Ti     0.4268   0.25   0.5
Er6     Er     0.3232   0.5   0.5
Ti7     Ti     0.25   0.5   0.5732
Ti8     Ti     0.25   0.5732   0.5
Ti9     Ti     0.25   0.5   0.4268
Ti10     Ti     0.25   0.4268   0.5
Er11     Er     0.5   0.5   0.3232
Ti12     Ti     0.5732   0.5   0.25
Ti13     Ti     0.5   0.5732   0.25
Ti14     Ti     0.5   0.4268   0.25
Ti15     Ti     0.4268   0.5   0.25
Er16     Er     0.5   0.6768   0.5
Ti17     Ti     0.5   0.75   0.5732
Ti18     Ti     0.5732   0.75   0.5
Ti19     Ti     0.5   0.75   0.4268
Ti20     Ti     0.4268   0.75   0.5
Er21     Er     0.6768   0.5   0.5
Ti22     Ti     0.75   0.5   0.5732
Ti23     Ti     0.75   0.5732   0.5
Ti24     Ti     0.75   0.5   0.4268
Ti25     Ti     0.75   0.4268   0.5
Er26     Er     0.5   0.5   0.6768
Ti27     Ti     0.5   0.5732   0.75
Ti28     Ti     0.5732   0.5   0.75
Ti29     Ti     0.4268   0.5   0.75
Ti30     Ti     0.5   0.4268   0.75
V31     V     0.5   0.4268   0.5
V32     V     0.4268   0.5   0.5
V33     V     0.5   0.5   0.4268
V34     V     0.5732   0.5   0.5
V35     V     0.5   0.5732   0.5
V36     V     0.5   0.5   0.5732
Li37     Li     0.9268   0.2474   0.5
Li38     Li     0.2474   0.9268   0.5
Li39     Li     0.9268   0.7526   0.5
Li40     Li     0.7526   0.9268   0.5
Li41     Li     0.5   0.9268   0.2474
Li42     Li     0.9268   0.5   0.2474
Li43     Li     0.5   0.9268   0.7526
Li44     Li     0.9268   0.5   0.7526
Li45     Li     0.7526   0.5   0.9268
Li46     Li     0.5   0.2474   0.9268
Li47     Li     0.2474   0.5   0.9268
Li48     Li     0.5   0.7526   0.9268
Li49     Li     0.5732   0.2526   0.0
Li50     Li     0.4268   0.2526   0.0
Li51     Li     0.2526   0.5732   0.0
Li52     Li     0.2526   0.4268   0.0
Li53     Li     0.0   0.5732   0.2526
Li54     Li     0.5732   0.0   0.2526
Li55     Li     0.0   0.4268   0.2526
Li56     Li     0.4268   0.0   0.2526
Li57     Li     0.0   0.2526   0.5732
Li58     Li     0.2526   0.0   0.5732
Li59     Li     0.2526   0.0   0.4268
Li60     Li     0.0   0.2526   0.4268
Li61     Li     0.4268   0.7474   0.0
Li62     Li     0.7474   0.5732   0.0
Li63     Li     0.5732   0.7474   0.0
Li64     Li     0.7474   0.4268   0.0
Li65     Li     0.0   0.5732   0.7474
Li66     Li     0.5732   0.0   0.7474
Li67     Li     0.0   0.4268   0.7474
Li68     Li     0.4268   0.0   0.7474
Li69     Li     0.7474   0.0   0.5732
Li70     Li     0.0   0.7474   0.5732
Li71     Li     0.0   0.7474   0.4268
Li72     Li     0.7474   0.0   0.4268
Li73     Li     0.0732   0.7526   0.5
Li74     Li     0.2474   0.0732   0.5
Li75     Li     0.0732   0.2474   0.5
Li76     Li     0.7526   0.0732   0.5
Li77     Li     0.5   0.0732   0.2474
Li78     Li     0.0732   0.5   0.2474
Li79     Li     0.5   0.0732   0.7526
Li80     Li     0.0732   0.5   0.7526
Li81     Li     0.2474   0.5   0.0732
Li82     Li     0.5   0.7526   0.0732
Li83     Li     0.7526   0.5   0.0732
He84     He     0.8233   0.7501   0.5
He85     He     0.5   0.8233   0.7501
He86     He     0.7501   0.5   0.8233
He87     He     0.7501   0.8233   0.5
He88     He     0.8233   0.5   0.7501
He89     He     0.5   0.7501   0.8233
H90     H     0.75   0.3232   0.75
S91     S     0.7501   0.4268   0.7501
H92     H     0.75   0.6768   0.75
S93     S     0.7501   0.5732   0.7501
Ce94     Ce     0.6768   0.5   0.7501
Ce95     Ce     0.7501   0.5   0.6768
H96     H     0.3232   0.75   0.75
S97     S     0.4268   0.7501   0.7501
H98     H     0.6768   0.75   0.75
S99     S     0.5732   0.7501   0.7501
Ce100     Ce     0.5   0.6768   0.7501
Ce101     Ce     0.5   0.7501   0.6768
H102     H     0.75   0.75   0.6768
S103     S     0.7501   0.7501   0.5732
H104     H     0.75   0.75   0.3232
S105     S     0.7501   0.7501   0.4268
Ce106     Ce     0.7501   0.6768   0.5
Ce107     Ce     0.6768   0.7501   0.5
H108     H     0.25   0.25   0.8232
S109     S     0.2501   0.2501   0.9268
H110     H     0.8232   0.25   0.25
S111     S     0.9268   0.2501   0.2501
H112     H     0.25   0.8232   0.25
S113     S     0.2501   0.9268   0.2501
Ce114     Ce     0.2501   0.1768   0.0
Ce115     Ce     0.0   0.2501   0.1768
Ce116     Ce     0.1768   0.0   0.2501
Ce117     Ce     0.1768   0.2501   0.0
Ce118     Ce     0.2501   0.0   0.1768
Ce119     Ce     0.0   0.1768   0.2501
H120     H     0.25   0.25   0.1768
S121     S     0.2501   0.2501   0.0732
H122     H     0.25   0.1768   0.25
S123     S     0.2501   0.0732   0.2501
H124     H     0.1768   0.25   0.25
S125     S     0.0732   0.2501   0.2501
He126     He     0.0   0.2501   0.3233
He127     He     0.3233   0.0   0.2501
He128     He     0.2501   0.3233   0.0
He129     He     0.2501   0.0   0.3233
He130     He     0.0   0.3233   0.2501
He131     He     0.3233   0.2501   0.0
H132     H     0.6768   0.25   0.25
S133     S     0.5732   0.2499   0.2499
H134     H     0.3232   0.25   0.25
S135     S     0.4268   0.2499   0.2499
Ce136     Ce     0.5   0.2499   0.3232
Ce137     Ce     0.5   0.3232   0.2499
He138     He     0.5   0.2499   0.1767
He139     He     0.5   0.1767   0.2499
He140     He     0.5   0.2499   0.8233
He141     He     0.8233   0.2499   0.5
H142     H     0.75   0.25   0.3232
S143     S     0.7501   0.2499   0.4268
H144     H     0.75   0.25   0.6768
S145     S     0.7501   0.2499   0.5732
H146     H     0.6768   0.25   0.75
S147     S     0.5732   0.2499   0.7501
H148     H     0.3232   0.25   0.75
S149     S     0.4268   0.2499   0.7501
Ce150     Ce     0.5   0.2499   0.6768
Ce151     Ce     0.6768   0.2499   0.5
Ce152     Ce     0.5   0.3232   0.7501
Ce153     Ce     0.7501   0.3232   0.5
He154     He     0.5   0.1767   0.7501
He155     He     0.7501   0.1767   0.5
H156     H     0.25   0.25   0.3232
S157     S     0.2499   0.2499   0.4268
H158     H     0.25   0.25   0.6768
S159     S     0.2499   0.2499   0.5732
Ce160     Ce     0.2499   0.3232   0.5
Ce161     Ce     0.3232   0.2499   0.5
He162     He     0.1767   0.2499   0.5
He163     He     0.2499   0.1767   0.5
He164     He     0.2499   0.8233   0.5
He165     He     0.2499   0.5   0.8233
H166     H     0.25   0.3232   0.75
S167     S     0.2499   0.4268   0.7501
H168     H     0.25   0.6768   0.75
S169     S     0.2499   0.5732   0.7501
H170     H     0.25   0.75   0.6768
S171     S     0.2499   0.7501   0.5732
H172     H     0.25   0.75   0.3232
S173     S     0.2499   0.7501   0.4268
Ce174     Ce     0.2499   0.6768   0.5
Ce175     Ce     0.2499   0.5   0.6768
Ce176     Ce     0.3232   0.5   0.7501
Ce177     Ce     0.3232   0.7501   0.5
He178     He     0.1767   0.5   0.7501
He179     He     0.1767   0.7501   0.5
He180     He     0.8233   0.5   0.2499
He181     He     0.5   0.8233   0.2499
H182     H     0.75   0.3232   0.25
S183     S     0.7501   0.4268   0.2499
H184     H     0.75   0.6768   0.25
S185     S     0.7501   0.5732   0.2499
H186     H     0.6768   0.75   0.25
S187     S     0.5732   0.7501   0.2499
H188     H     0.3232   0.75   0.25
S189     S     0.4268   0.7501   0.2499
Ce190     Ce     0.5   0.6768   0.2499
Ce191     Ce     0.6768   0.5   0.2499
Ce192     Ce     0.7501   0.5   0.3232
Ce193     Ce     0.5   0.7501   0.3232
He194     He     0.7501   0.5   0.1767
He195     He     0.5   0.7501   0.1767
H196     H     0.25   0.6768   0.25
S197     S     0.2499   0.5732   0.2499
H198     H     0.25   0.3232   0.25
S199     S     0.2499   0.4268   0.2499
Ce200     Ce     0.3232   0.5   0.2499
Ce201     Ce     0.2499   0.5   0.3232
He202     He     0.2499   0.5   0.1767
He203     He     0.1767   0.5   0.2499
H204     H     0.75   0.25   0.8232
S205     S     0.7499   0.2501   0.9268
H206     H     0.8232   0.25   0.75
S207     S     0.9268   0.2501   0.7499
H208     H     0.75   0.1768   0.75
S209     S     0.7499   0.0732   0.7499
H210     H     0.1768   0.25   0.75
S211     S     0.0732   0.2501   0.7499
H212     H     0.25   0.1768   0.75
S213     S     0.2501   0.0732   0.7499
H214     H     0.25   0.75   0.8232
S215     S     0.2501   0.7499   0.9268
H216     H     0.25   0.8232   0.75
S217     S     0.2501   0.9268   0.7499
H218     H     0.1768   0.75   0.75
S219     S     0.0732   0.7499   0.7499
H220     H     0.8232   0.75   0.75
S221     S     0.9268   0.7499   0.7499
H222     H     0.75   0.8232   0.75
S223     S     0.7499   0.9268   0.7499
H224     H     0.75   0.75   0.8232
S225     S     0.7499   0.7499   0.9268
H226     H     0.75   0.25   0.1768
S227     S     0.7499   0.2501   0.0732
H228     H     0.75   0.1768   0.25
S229     S     0.7499   0.0732   0.2501
H230     H     0.75   0.8232   0.25
S231     S     0.7499   0.9268   0.2501
H232     H     0.75   0.75   0.1768
S233     S     0.7499   0.7499   0.0732
H234     H     0.8232   0.75   0.25
S235     S     0.9268   0.7499   0.2501
H236     H     0.25   0.75   0.1768
S237     S     0.2501   0.7499   0.0732
H238     H     0.1768   0.75   0.25
S239     S     0.0732   0.7499   0.2501
He240     He     0.0   0.7499   0.3233
He241     He     0.3233   0.7499   0.0
He242     He     0.7499   0.0   0.3233
He243     He     0.7499   0.3233   0.0
He244     He     0.3233   0.0   0.7499
He245     He     0.0   0.3233   0.7499
Ce246     Ce     0.1768   0.0   0.7499
Ce247     Ce     0.0   0.1768   0.7499
Ce248     Ce     0.7499   0.0   0.1768
Ce249     Ce     0.0   0.7499   0.1768
Ce250     Ce     0.1768   0.7499   0.0
Ce251     Ce     0.7499   0.1768   0.0
Ce252     Ce     0.8232   0.0   0.2501
Ce253     Ce     0.0   0.8232   0.2501
Ce254     Ce     0.0   0.8232   0.7499
Ce255     Ce     0.8232   0.0   0.7499
Ce256     Ce     0.2501   0.0   0.8232
Ce257     Ce     0.0   0.2501   0.8232
Ce258     Ce     0.7499   0.0   0.8232
Ce259     Ce     0.0   0.7499   0.8232
Ce260     Ce     0.8232   0.2501   0.0
Ce261     Ce     0.7499   0.8232   0.0
Ce262     Ce     0.8232   0.7499   0.0
Ce263     Ce     0.2501   0.8232   0.0
He264     He     0.0   0.7499   0.6767
He265     He     0.2501   0.0   0.6767
He266     He     0.0   0.2501   0.6767
He267     He     0.7499   0.0   0.6767
He268     He     0.6767   0.0   0.2501
He269     He     0.0   0.6767   0.2501
He270     He     0.6767   0.0   0.7499
He271     He     0.0   0.6767   0.7499
He272     He     0.2501   0.6767   0.0
He273     He     0.6767   0.7499   0.0
He274     He     0.7499   0.6767   0.0
He275     He     0.6767   0.2501   0.0
Li276     Li     0.5   0.2474   0.0732
Ti277     Ti     0.0   0.75   0.0732
Ti278     Ti     0.0732   0.75   0.0
Er279     Er     0.0   0.8232   0.0
Ti280     Ti     0.0   0.75   0.9268
Ti281     Ti     0.9268   0.75   0.0
Ti282     Ti     0.75   0.0732   0.0
Er283     Er     0.8232   0.0   0.0
Ti284     Ti     0.75   0.0   0.0732
Ti285     Ti     0.75   0.0   0.9268
Ti286     Ti     0.75   0.9268   0.0
Ti287     Ti     0.0   0.0732   0.75
Er288     Er     0.0   0.0   0.8232
Ti289     Ti     0.0732   0.0   0.75
Ti290     Ti     0.0   0.9268   0.75
Ti291     Ti     0.9268   0.0   0.75
Er292     Er     0.0   0.1768   0.0
Ti293     Ti     0.0   0.25   0.0732
Ti294     Ti     0.0732   0.25   0.0
Ti295     Ti     0.0   0.25   0.9268
Ti296     Ti     0.9268   0.25   0.0
Er297     Er     0.1768   0.0   0.0
Ti298     Ti     0.25   0.0732   0.0
Ti299     Ti     0.25   0.0   0.0732
Ti300     Ti     0.25   0.0   0.9268
Ti301     Ti     0.25   0.9268   0.0
V302     V     0.0   0.9268   0.0
V303     V     0.9268   0.0   0.0
V304     V     0.0   0.0   0.9268
V305     V     0.0   0.0732   0.0
V306     V     0.0732   0.0   0.0
V307     V     0.0   0.0   0.0732
Er308     Er     0.0   0.0   0.1768
Ti309     Ti     0.0   0.0732   0.25
Ti310     Ti     0.0732   0.0   0.25
Ti311     Ti     0.9268   0.0   0.25
Ti312     Ti     0.0   0.9268   0.25
loop_
_geom_bond_atom_site_label_1
_geom_bond_atom_site_label_2
_geom_bond_distance
_geom_bond_site_symmetry_2
_ccdc_geom_bond_type
Er1     Ti2    10.0   .     S
Er1     Ti4    10.0   .     S
Er1     Ti3    10.0   .     S
Er1     Ti5    10.0   .     S
Er1     V31    10.0   .     S
Ti2     Ti3    10.001   .     S
Ti2     Ti5    10.001   .     S
Ti2     Ce150    10.002   .     S
Ti3     Ti4    10.001   .     S
Ti3     Ce151    10.002   .     S
Ti4     Ti5    10.001   .     S
Ti4     Ce136    10.002   .     S
Ti5     Ce161    10.002   .     S
Er6     Ti7    10.0   .     S
Er6     Ti9    10.0   .     S
Er6     Ti10    10.0   .     S
Er6     Ti8    10.0   .     S
Er6     V32    10.0   .     S
Ti7     Ti10    10.001   .     S
Ti7     Ti8    10.001   .     S
Ti7     Ce175    10.002   .     S
Ti8     Ti9    10.001   .     S
Ti8     Ce174    10.002   .     S
Ti9     Ti10    10.001   .     S
Ti9     Ce201    10.002   .     S
Ti10     Ce160    10.002   .     S
Er11     Ti14    10.0   .     S
Er11     Ti12    10.0   .     S
Er11     Ti13    10.0   .     S
Er11     Ti15    10.0   .     S
Er11     V33    10.0   .     S
Ti12     Ti14    10.001   .     S
Ti12     Ti13    10.001   .     S
Ti12     Ce191    10.002   .     S
Ti13     Ti15    10.001   .     S
Ti13     Ce190    10.002   .     S
Ti14     Ti15    10.001   .     S
Ti14     Ce137    10.002   .     S
Ti15     Ce200    10.002   .     S
Er16     Ti17    10.0   .     S
Er16     Ti19    10.0   .     S
Er16     Ti18    10.0   .     S
Er16     Ti20    10.0   .     S
Er16     V35    10.0   .     S
Ti17     Ti20    10.001   .     S
Ti17     Ti18    10.001   .     S
Ti17     Ce101    10.002   .     S
Ti18     Ti19    10.001   .     S
Ti18     Ce107    10.002   .     S
Ti19     Ti20    10.001   .     S
Ti19     Ce193    10.002   .     S
Ti20     Ce177    10.002   .     S
Er21     Ti22    10.0   .     S
Er21     Ti24    10.0   .     S
Er21     Ti23    10.0   .     S
Er21     Ti25    10.0   .     S
Er21     V34    10.0   .     S
Ti22     Ti23    10.001   .     S
Ti22     Ti25    10.001   .     S
Ti22     Ce95    10.002   .     S
Ti23     Ti24    10.001   .     S
Ti23     Ce106    10.002   .     S
Ti24     Ti25    10.001   .     S
Ti24     Ce192    10.002   .     S
Ti25     Ce153    10.002   .     S
Er26     Ti29    10.0   .     S
Er26     Ti27    10.0   .     S
Er26     Ti30    10.0   .     S
Er26     Ti28    10.0   .     S
Er26     V36    10.0   .     S
Ti27     Ti28    10.001   .     S
Ti27     Ti29    10.001   .     S
Ti27     Ce100    10.002   .     S
Ti28     Ti30    10.001   .     S
Ti28     Ce94    10.002   .     S
Ti29     Ti30    10.001   .     S
Ti29     Ce176    10.002   .     S
Ti30     Ce152    10.002   .     S
V31     V36    10.001   .     S
V31     V33    10.001   .     S
V31     V34    10.001   .     S
V31     V32    10.001   .     S
V32     V36    10.001   .     S
V32     V33    10.001   .     S
V32     V35    10.001   .     S
V33     V34    10.001   .     S
V33     V35    10.001   .     S
V34     V36    10.001   .     S
V34     V35    10.001   .     S
V35     V36    10.001   .     S
Li37     He141    10.0   .     S
Li37     Li60    10.001   1_655     S
Li37     Li57    10.001   1_655     S
Li38     He164    10.0   .     S
Li38     Li59    10.001   1_565     S
Li38     Li58    10.001   1_565     S
Li39     He84    10.0   .     S
Li39     Li71    10.001   1_655     S
Li39     Li70    10.001   1_655     S
Li40     He87    10.0   .     S
Li40     Li72    10.001   1_565     S
Li40     Li69    10.001   1_565     S
Li41     He181    10.0   .     S
Li41     Li56    10.001   1_565     S
Li41     Li54    10.001   1_565     S
Li42     He180    10.0   .     S
Li42     Li55    10.001   1_655     S
Li42     Li53    10.001   1_655     S
Li43     He85    10.0   .     S
Li43     Li68    10.001   1_565     S
Li43     Li66    10.001   1_565     S
Li44     He88    10.0   .     S
Li44     Li67    10.001   1_655     S
Li44     Li65    10.001   1_655     S
Li45     He86    10.0   .     S
Li45     Li64    10.001   1_556     S
Li45     Li62    10.001   1_556     S
Li46     He140    10.0   .     S
Li46     Li50    10.001   1_556     S
Li46     Li49    10.001   1_556     S
Li47     He165    10.0   .     S
Li47     Li52    10.001   1_556     S
Li47     Li51    10.001   1_556     S
Li48     He89    10.0   .     S
Li48     Li61    10.001   1_556     S
Li48     Li63    10.001   1_556     S
Li49     He275    10.0   .     S
Li49     Li276    10.001   .     S
Li49     Li46    10.001   1_554     S
Li50     He131    10.0   .     S
Li50     Li46    10.001   1_554     S
Li50     Li276    10.001   .     S
Li51     He272    10.0   .     S
Li51     Li81    10.001   .     S
Li51     Li47    10.001   1_554     S
Li52     He128    10.0   .     S
Li52     Li47    10.001   1_554     S
Li52     Li81    10.001   .     S
Li53     He269    10.0   .     S
Li53     Li78    10.001   .     S
Li53     Li42    10.001   1_455     S
Li54     He268    10.0   .     S
Li54     Li77    10.001   .     S
Li54     Li41    10.001   1_545     S
Li55     He130    10.0   .     S
Li55     Li42    10.001   1_455     S
Li55     Li78    10.001   .     S
Li56     He127    10.0   .     S
Li56     Li41    10.001   1_545     S
Li56     Li77    10.001   .     S
Li57     He266    10.0   .     S
Li57     Li75    10.001   .     S
Li57     Li37    10.001   1_455     S
Li58     He265    10.0   .     S
Li58     Li74    10.001   .     S
Li58     Li38    10.001   1_545     S
Li59     He129    10.0   .     S
Li59     Li38    10.001   1_545     S
Li59     Li74    10.001   .     S
Li60     He126    10.0   .     S
Li60     Li37    10.001   1_455     S
Li60     Li75    10.001   .     S
Li61     He241    10.0   .     S
Li61     Li48    10.001   1_554     S
Li61     Li82    10.001   .     S
Li62     He274    10.0   .     S
Li62     Li83    10.001   .     S
Li62     Li45    10.001   1_554     S
Li63     He273    10.0   .     S
Li63     Li82    10.001   .     S
Li63     Li48    10.001   1_554     S
Li64     He243    10.0   .     S
Li64     Li45    10.001   1_554     S
Li64     Li83    10.001   .     S
Li65     He271    10.0   .     S
Li65     Li80    10.001   .     S
Li65     Li44    10.001   1_455     S
Li66     He270    10.0   .     S
Li66     Li79    10.001   .     S
Li66     Li43    10.001   1_545     S
Li67     He245    10.0   .     S
Li67     Li44    10.001   1_455     S
Li67     Li80    10.001   .     S
Li68     He244    10.0   .     S
Li68     Li43    10.001   1_545     S
Li68     Li79    10.001   .     S
Li69     He267    10.0   .     S
Li69     Li76    10.001   .     S
Li69     Li40    10.001   1_545     S
Li70     He264    10.0   .     S
Li70     Li73    10.001   .     S
Li70     Li39    10.001   1_455     S
Li71     He240    10.0   .     S
Li71     Li39    10.001   1_455     S
Li71     Li73    10.001   .     S
Li72     He242    10.0   .     S
Li72     Li40    10.001   1_545     S
Li72     Li76    10.001   .     S
Li73     He179    10.0   .     S
Li74     He163    10.0   .     S
Li75     He162    10.0   .     S
Li76     He155    10.0   .     S
Li77     He139    10.0   .     S
Li78     He203    10.0   .     S
Li79     He154    10.0   .     S
Li80     He178    10.0   .     S
Li81     He202    10.0   .     S
Li82     He195    10.0   .     S
Li83     He194    10.0   .     S
He84     S103    9.999   .     S
He84     Ce106    10.001   .     S
He84     S105    9.999   .     S
He84     He87    10.001   .     S
He85     S99    9.999   .     S
He85     Ce101    10.001   .     S
He85     S97    9.999   .     S
He85     He89    10.001   .     S
He86     S93    9.999   .     S
He86     Ce94    10.001   .     S
He86     S91    9.999   .     S
He86     He88    10.001   .     S
He87     S103    9.999   .     S
He87     Ce107    10.001   .     S
He87     S105    9.999   .     S
He88     S93    9.999   .     S
He88     Ce95    10.001   .     S
He88     S91    9.999   .     S
He89     S99    9.999   .     S
He89     Ce100    10.001   .     S
He89     S97    9.999   .     S
H90     S91    9.998   .     S
H90     H204    9.999   .     S
H90     H206    9.999   .     S
H90     H146    9.999   .     S
H90     H144    9.999   .     S
S91     Ce94    9.999   .     S
S91     Ce95    9.999   .     S
H92     S93    9.998   .     S
H92     H220    9.999   .     S
H92     H224    9.999   .     S
H92     H98    9.999   .     S
H92     H102    9.999   .     S
S93     Ce95    9.999   .     S
S93     Ce94    9.999   .     S
Ce94     Ce95    10.001   .     S
H96     S97    9.998   .     S
H96     H216    9.999   .     S
H96     H214    9.999   .     S
H96     H170    9.999   .     S
H96     H168    9.999   .     S
S97     Ce101    9.999   .     S
S97     Ce100    9.999   .     S
H98     S99    9.998   .     S
H98     H224    9.999   .     S
H98     H222    9.999   .     S
H98     H102    9.999   .     S
S99     Ce100    9.999   .     S
S99     Ce101    9.999   .     S
Ce100     Ce101    10.001   .     S
H102     S103    9.998   .     S
H102     H222    9.999   .     S
H102     H220    9.999   .     S
S103     Ce106    9.999   .     S
S103     Ce107    9.999   .     S
H104     S105    9.998   .     S
H104     H234    9.999   .     S
H104     H230    9.999   .     S
H104     H186    9.999   .     S
H104     H184    9.999   .     S
S105     Ce106    9.999   .     S
S105     Ce107    9.999   .     S
Ce106     Ce107    10.001   .     S
H108     S109    9.998   .     S
H108     H148    9.999   .     S
H108     H166    9.999   .     S
H108     H212    9.999   .     S
H108     H210    9.999   .     S
S109     He131    9.999   1_556     S
S109     He128    9.999   1_556     S
S109     Ce114    9.999   1_556     S
S109     Ce117    9.999   1_556     S
H110     S111    9.998   .     S
H110     H142    9.999   .     S
H110     H182    9.999   .     S
H110     H228    9.999   .     S
H110     H226    9.999   .     S
S111     He130    9.999   1_655     S
S111     He126    9.999   1_655     S
S111     Ce115    9.999   1_655     S
S111     Ce119    9.999   1_655     S
H112     S113    9.998   .     S
H112     H172    9.999   .     S
H112     H188    9.999   .     S
H112     H238    9.999   .     S
H112     H236    9.999   .     S
S113     He129    9.999   1_565     S
S113     He127    9.999   1_565     S
S113     Ce116    9.999   1_565     S
S113     Ce118    9.999   1_565     S
Ce114     S109    9.999   1_554     S
Ce114     S121    9.999   .     S
Ce114     He131    10.001   .     S
Ce114     Ce117    10.001   .     S
Ce114     Ti298    10.002   .     S
Ce115     S111    9.999   1_455     S
Ce115     S125    9.999   .     S
Ce115     He130    10.001   .     S
Ce115     Ce119    10.001   .     S
Ce115     Ti293    10.002   .     S
Ce116     S113    9.999   1_545     S
Ce116     S123    9.999   .     S
Ce116     He129    10.001   .     S
Ce116     Ce118    10.001   .     S
Ce116     Ti310    10.002   .     S
Ce117     S109    9.999   1_554     S
Ce117     S121    9.999   .     S
Ce117     He128    10.001   .     S
Ce117     Ti294    10.002   .     S
Ce118     S113    9.999   1_545     S
Ce118     S123    9.999   .     S
Ce118     He127    10.001   .     S
Ce118     Ti299    10.002   .     S
Ce119     S111    9.999   1_455     S
Ce119     S125    9.999   .     S
Ce119     He126    10.001   .     S
Ce119     Ti309    10.002   .     S
H120     S121    9.998   .     S
H120     H198    9.999   .     S
H120     H134    9.999   .     S
H120     H122    9.999   .     S
H120     H124    9.999   .     S
S121     He128    9.999   .     S
S121     He131    9.999   .     S
H122     S123    9.998   .     S
H122     H134    9.999   .     S
H122     H156    9.999   .     S
H122     H124    9.999   .     S
S123     He127    9.999   .     S
S123     He129    9.999   .     S
H124     S125    9.998   .     S
H124     H156    9.999   .     S
H124     H198    9.999   .     S
S125     He126    9.999   .     S
S125     He130    9.999   .     S
He126     S111    9.999   1_455     S
He126     He130    10.001   .     S
He127     S113    9.999   1_545     S
He127     He129    10.001   .     S
He128     S109    9.999   1_554     S
He128     He131    10.001   .     S
He129     S113    9.999   1_545     S
He130     S111    9.999   1_455     S
He131     S109    9.999   1_554     S
H132     H182    9.999   .     S
H132     H142    9.999   .     S
H132     S133    9.998   .     S
H132     H226    9.999   .     S
H132     H228    9.999   .     S
S133     Ce137    9.999   .     S
S133     Ce136    9.999   .     S
S133     He138    9.999   .     S
S133     He139    9.999   .     S
H134     S135    9.998   .     S
H134     H198    9.999   .     S
H134     H156    9.999   .     S
S135     Ce136    9.999   .     S
S135     Ce137    9.999   .     S
S135     He139    9.999   .     S
S135     He138    9.999   .     S
Ce136     He139    10.001   .     S
Ce136     Ce137    10.001   .     S
Ce137     He138    10.001   .     S
He138     He139    10.001   .     S
He138     Li276    10.0   .     S
He140     S147    9.999   .     S
He140     S149    9.999   .     S
He140     Ce152    10.001   .     S
He140     He154    10.001   .     S
He141     S145    9.999   .     S
He141     S143    9.999   .     S
He141     Ce153    10.001   .     S
He141     He155    10.001   .     S
H142     H182    9.999   .     S
H142     S143    9.998   .     S
H142     H228    9.999   .     S
S143     He155    9.999   .     S
S143     Ce151    9.999   .     S
S143     Ce153    9.999   .     S
H144     S145    9.998   .     S
H144     H206    9.999   .     S
H144     H146    9.999   .     S
H144     H208    9.999   .     S
S145     He155    9.999   .     S
S145     Ce151    9.999   .     S
S145     Ce153    9.999   .     S
H146     S147    9.998   .     S
H146     H204    9.999   .     S
H146     H208    9.999   .     S
S147     He154    9.999   .     S
S147     Ce152    9.999   .     S
S147     Ce150    9.999   .     S
H148     S149    9.998   .     S
H148     H158    9.999   .     S
H148     H166    9.999   .     S
H148     H212    9.999   .     S
S149     He154    9.999   .     S
S149     Ce152    9.999   .     S
S149     Ce150    9.999   .     S
Ce150     He154    10.001   .     S
Ce150     Ce152    10.001   .     S
Ce151     He155    10.001   .     S
Ce151     Ce153    10.001   .     S
H156     H198    9.999   .     S
H156     S157    9.998   .     S
S157     Ce160    9.999   .     S
S157     Ce161    9.999   .     S
S157     He162    9.999   .     S
S157     He163    9.999   .     S
H158     H166    9.999   .     S
H158     S159    9.998   .     S
H158     H212    9.999   .     S
H158     H210    9.999   .     S
S159     Ce161    9.999   .     S
S159     Ce160    9.999   .     S
S159     He163    9.999   .     S
S159     He162    9.999   .     S
Ce160     He162    10.001   .     S
Ce160     Ce161    10.001   .     S
Ce161     He163    10.001   .     S
He162     He163    10.001   .     S
He164     S171    9.999   .     S
He164     S173    9.999   .     S
He164     Ce177    10.001   .     S
He164     He179    10.001   .     S
He165     S169    9.999   .     S
He165     S167    9.999   .     S
He165     Ce176    10.001   .     S
He165     He178    10.001   .     S
H166     S167    9.998   .     S
H166     H210    9.999   .     S
S167     He178    9.999   .     S
S167     Ce175    9.999   .     S
S167     Ce176    9.999   .     S
H168     S169    9.998   .     S
H168     H214    9.999   .     S
H168     H170    9.999   .     S
H168     H218    9.999   .     S
S169     He178    9.999   .     S
S169     Ce175    9.999   .     S
S169     Ce176    9.999   .     S
H170     S171    9.998   .     S
H170     H216    9.999   .     S
H170     H218    9.999   .     S
S171     He179    9.999   .     S
S171     Ce177    9.999   .     S
S171     Ce174    9.999   .     S
H172     S173    9.998   .     S
H172     H196    9.999   .     S
H172     H188    9.999   .     S
H172     H238    9.999   .     S
S173     He179    9.999   .     S
S173     Ce177    9.999   .     S
S173     Ce174    9.999   .     S
Ce174     He179    10.001   .     S
Ce174     Ce177    10.001   .     S
Ce175     He178    10.001   .     S
Ce175     Ce176    10.001   .     S
He180     S185    9.999   .     S
He180     S183    9.999   .     S
He180     Ce192    10.001   .     S
He180     He194    10.001   .     S
He181     S187    9.999   .     S
He181     S189    9.999   .     S
He181     Ce193    10.001   .     S
He181     He195    10.001   .     S
H182     S183    9.998   .     S
H182     H226    9.999   .     S
S183     He194    9.999   .     S
S183     Ce192    9.999   .     S
S183     Ce191    9.999   .     S
H184     S185    9.998   .     S
H184     H234    9.999   .     S
H184     H186    9.999   .     S
H184     H232    9.999   .     S
S185     He194    9.999   .     S
S185     Ce192    9.999   .     S
S185     Ce191    9.999   .     S
H186     S187    9.998   .     S
H186     H230    9.999   .     S
H186     H232    9.999   .     S
S187     He195    9.999   .     S
S187     Ce190    9.999   .     S
S187     Ce193    9.999   .     S
H188     S189    9.998   .     S
H188     H196    9.999   .     S
H188     H236    9.999   .     S
S189     He195    9.999   .     S
S189     Ce190    9.999   .     S
S189     Ce193    9.999   .     S
Ce190     He195    10.001   .     S
Ce190     Ce193    10.001   .     S
Ce191     He194    10.001   .     S
Ce191     Ce192    10.001   .     S
H196     S197    9.998   .     S
H196     H238    9.999   .     S
H196     H236    9.999   .     S
S197     Ce200    9.999   .     S
S197     Ce201    9.999   .     S
S197     He203    9.999   .     S
S197     He202    9.999   .     S
H198     S199    9.998   .     S
S199     Ce200    9.999   .     S
S199     Ce201    9.999   .     S
S199     He202    9.999   .     S
S199     He203    9.999   .     S
Ce200     He202    10.001   .     S
Ce200     Ce201    10.001   .     S
Ce201     He203    10.001   .     S
He202     He203    10.001   .     S
H204     S205    9.998   .     S
H204     H208    9.999   .     S
H204     H206    9.999   .     S
S205     Ce260    9.999   1_556     S
S205     He275    9.999   1_556     S
S205     He243    9.999   1_556     S
S205     Ce251    9.999   1_556     S
H206     S207    9.998   .     S
H206     H208    9.999   .     S
S207     Ce257    9.999   1_655     S
S207     He266    9.999   1_655     S
S207     He245    9.999   1_655     S
S207     Ce247    9.999   1_655     S
H208     S209    9.998   .     S
S209     He270    9.999   .     S
S209     Ce258    9.999   .     S
S209     Ce255    9.999   .     S
S209     He267    9.999   .     S
H210     S211    9.998   .     S
H210     H212    9.999   .     S
S211     Ce247    9.999   .     S
S211     He245    9.999   .     S
S211     Ce257    9.999   .     S
S211     He266    9.999   .     S
H212     S213    9.998   .     S
S213     Ce246    9.999   .     S
S213     Ce256    9.999   .     S
S213     He265    9.999   .     S
S213     He244    9.999   .     S
H214     S215    9.998   .     S
H214     H218    9.999   .     S
H214     H216    9.999   .     S
S215     Ce263    9.999   1_556     S
S215     He272    9.999   1_556     S
S215     He241    9.999   1_556     S
S215     Ce250    9.999   1_556     S
H216     S217    9.998   .     S
H216     H218    9.999   .     S
S217     Ce256    9.999   1_565     S
S217     He265    9.999   1_565     S
S217     He244    9.999   1_565     S
S217     Ce246    9.999   1_565     S
H218     S219    9.998   .     S
S219     He264    9.999   .     S
S219     Ce254    9.999   .     S
S219     Ce259    9.999   .     S
S219     He271    9.999   .     S
H220     S221    9.998   .     S
H220     H222    9.999   .     S
H220     H224    9.999   .     S
S221     Ce259    9.999   1_655     S
S221     Ce254    9.999   1_655     S
S221     He271    9.999   1_655     S
S221     He264    9.999   1_655     S
H222     S223    9.998   .     S
H222     H224    9.999   .     S
S223     Ce255    9.999   1_565     S
S223     Ce258    9.999   1_565     S
S223     He267    9.999   1_565     S
S223     He270    9.999   1_565     S
H224     S225    9.998   .     S
S225     Ce261    9.999   1_556     S
S225     Ce262    9.999   1_556     S
S225     He273    9.999   1_556     S
S225     He274    9.999   1_556     S
H226     S227    9.998   .     S
H226     H228    9.999   .     S
S227     Ce251    9.999   .     S
S227     He243    9.999   .     S
S227     Ce260    9.999   .     S
S227     He275    9.999   .     S
H228     S229    9.998   .     S
S229     Ce248    9.999   .     S
S229     Ce252    9.999   .     S
S229     He268    9.999   .     S
S229     He242    9.999   .     S
H230     S231    9.998   .     S
H230     H232    9.999   .     S
H230     H234    9.999   .     S
S231     Ce252    9.999   1_565     S
S231     He268    9.999   1_565     S
S231     He242    9.999   1_565     S
S231     Ce248    9.999   1_565     S
H232     H234    9.999   .     S
H232     S233    9.998   .     S
S233     Ce262    9.999   .     S
S233     Ce261    9.999   .     S
S233     He274    9.999   .     S
S233     He273    9.999   .     S
H234     S235    9.998   .     S
S235     Ce253    9.999   1_655     S
S235     He269    9.999   1_655     S
S235     He240    9.999   1_655     S
S235     Ce249    9.999   1_655     S
H236     S237    9.998   .     S
H236     H238    9.999   .     S
S237     Ce250    9.999   .     S
S237     He241    9.999   .     S
S237     Ce263    9.999   .     S
S237     He272    9.999   .     S
H238     S239    9.998   .     S
S239     Ce249    9.999   .     S
S239     He240    9.999   .     S
S239     Ce253    9.999   .     S
S239     He269    9.999   .     S
He240     S235    9.999   1_455     S
He240     He269    10.001   .     S
He240     Ce253    10.001   .     S
He241     S215    9.999   1_554     S
He241     He272    10.001   .     S
He241     Ce263    10.001   .     S
He242     He268    10.001   .     S
He242     Ce252    10.001   .     S
He242     S231    9.999   1_545     S
He243     S205    9.999   1_554     S
He243     He275    10.001   .     S
He243     Ce260    10.001   .     S
He244     He265    10.001   .     S
He244     Ce256    10.001   .     S
He244     S217    9.999   1_545     S
He245     S207    9.999   1_455     S
He245     He266    10.001   .     S
He245     Ce257    10.001   .     S
Ce246     He265    10.001   .     S
Ce246     Ce256    10.001   .     S
Ce246     S217    9.999   1_545     S
Ce246     Ti289    10.002   .     S
Ce247     He266    10.001   .     S
Ce247     Ce257    10.001   .     S
Ce247     S207    9.999   1_455     S
Ce247     Ti287    10.002   .     S
Ce248     He268    10.001   .     S
Ce248     Ce252    10.001   .     S
Ce248     S231    9.999   1_545     S
Ce248     Ti284    10.002   .     S
Ce249     He269    10.001   .     S
Ce249     Ce253    10.001   .     S
Ce249     S235    9.999   1_455     S
Ce249     Ti277    10.002   .     S
Ce250     He272    10.001   .     S
Ce250     Ce263    10.001   .     S
Ce250     S215    9.999   1_554     S
Ce250     Ti278    10.002   .     S
Ce251     He275    10.001   .     S
Ce251     Ce260    10.001   .     S
Ce251     S205    9.999   1_554     S
Ce251     Ti282    10.002   .     S
Ce252     S231    9.999   1_545     S
Ce252     Ti311    10.002   .     S
Ce253     S235    9.999   1_455     S
Ce253     Ti312    10.002   .     S
Ce254     He264    10.001   .     S
Ce254     Ce259    10.001   .     S
Ce254     S221    9.999   1_455     S
Ce254     Ti290    10.002   .     S
Ce255     He267    10.001   .     S
Ce255     Ce258    10.001   .     S
Ce255     S223    9.999   1_545     S
Ce255     Ti291    10.002   .     S
Ce256     S217    9.999   1_545     S
Ce256     Ti300    10.002   .     S
Ce257     S207    9.999   1_455     S
Ce257     Ti295    10.002   .     S
Ce258     He270    10.001   .     S
Ce258     S223    9.999   1_545     S
Ce258     Ti285    10.002   .     S
Ce259     He271    10.001   .     S
Ce259     S221    9.999   1_455     S
Ce259     Ti280    10.002   .     S
Ce260     S205    9.999   1_554     S
Ce260     Ti296    10.002   .     S
Ce261     S225    9.999   1_554     S
Ce261     He273    10.001   .     S
Ce261     Ce262    10.001   .     S
Ce261     Ti286    10.002   .     S
Ce262     S225    9.999   1_554     S
Ce262     He274    10.001   .     S
Ce262     Ti281    10.002   .     S
Ce263     S215    9.999   1_554     S
Ce263     Ti301    10.002   .     S
He264     He271    10.001   .     S
He264     S221    9.999   1_455     S
He265     S217    9.999   1_545     S
He266     S207    9.999   1_455     S
He267     He270    10.001   .     S
He267     S223    9.999   1_545     S
He268     S231    9.999   1_545     S
He269     S235    9.999   1_455     S
He270     S223    9.999   1_545     S
He271     S221    9.999   1_455     S
He272     S215    9.999   1_554     S
He273     S225    9.999   1_554     S
He273     He274    10.001   .     S
He274     S225    9.999   1_554     S
He275     S205    9.999   1_554     S
Ti277     Ti281    10.001   1_455     S
Ti277     Er279    10.0   .     S
Ti277     Ti278    10.001   .     S
Ti278     Ti280    10.001   1_554     S
Ti278     Er279    10.0   .     S
Er279     Ti280    10.0   1_554     S
Er279     Ti281    10.0   1_455     S
Er279     V302    10.0   .     S
Ti280     Ti278    10.001   1_556     S
Ti280     Er279    10.0   1_556     S
Ti280     Ti281    10.001   1_456     S
Ti281     Ti277    10.001   1_655     S
Ti281     Er279    10.0   1_655     S
Ti281     Ti280    10.001   1_654     S
Ti282     Ti285    10.001   1_554     S
Ti282     Er283    10.0   .     S
Ti282     Ti284    10.001   .     S
Er283     Ti285    10.0   1_554     S
Er283     Ti286    10.0   1_545     S
Er283     Ti284    10.0   .     S
Er283     V303    10.0   .     S
Ti284     Ti286    10.001   1_545     S
Ti285     Ti282    10.001   1_556     S
Ti285     Er283    10.0   1_556     S
Ti285     Ti286    10.001   1_546     S
Ti286     Er283    10.0   1_565     S
Ti286     Ti284    10.001   1_565     S
Ti286     Ti285    10.001   1_564     S
Ti287     Ti291    10.001   1_455     S
Ti287     Er288    10.0   .     S
Ti287     Ti289    10.001   .     S
Er288     Ti290    10.0   1_545     S
Er288     Ti291    10.0   1_455     S
Er288     Ti289    10.0   .     S
Er288     V304    10.0   .     S
Ti289     Ti290    10.001   1_545     S
Ti290     Er288    10.0   1_565     S
Ti290     Ti289    10.001   1_565     S
Ti290     Ti291    10.001   1_465     S
Ti291     Ti287    10.001   1_655     S
Ti291     Er288    10.0   1_655     S
Ti291     Ti290    10.001   1_645     S
Er292     Ti295    10.0   1_554     S
Er292     Ti296    10.0   1_455     S
Er292     Ti293    10.0   .     S
Er292     Ti294    10.0   .     S
Er292     V305    10.0   .     S
Ti293     Ti296    10.001   1_455     S
Ti293     Ti294    10.001   .     S
Ti294     Ti295    10.001   1_554     S
Ti295     Er292    10.0   1_556     S
Ti295     Ti294    10.001   1_556     S
Ti295     Ti296    10.001   1_456     S
Ti296     Er292    10.0   1_655     S
Ti296     Ti293    10.001   1_655     S
Ti296     Ti295    10.001   1_654     S
Er297     Ti300    10.0   1_554     S
Er297     Ti301    10.0   1_545     S
Er297     Ti299    10.0   .     S
Er297     Ti298    10.0   .     S
Er297     V306    10.0   .     S
Ti298     Ti300    10.001   1_554     S
Ti298     Ti299    10.001   .     S
Ti299     Ti301    10.001   1_545     S
Ti300     Er297    10.0   1_556     S
Ti300     Ti301    10.001   1_546     S
Ti300     Ti298    10.001   1_556     S
Ti301     Er297    10.0   1_565     S
Ti301     Ti300    10.001   1_564     S
Ti301     Ti299    10.001   1_565     S
V302     V304    10.001   1_564     S
V302     V303    10.001   1_465     S
V302     V306    10.001   1_565     S
V302     V307    10.001   1_565     S
V303     V305    10.001   1_655     S
V303     V304    10.001   1_654     S
V303     V302    10.001   1_645     S
V303     V307    10.001   1_655     S
V304     V305    10.001   1_556     S
V304     V302    10.001   1_546     S
V304     V303    10.001   1_456     S
V304     V306    10.001   1_556     S
V305     V304    10.001   1_554     S
V305     V303    10.001   1_455     S
V305     V307    10.001   .     S
V305     V306    10.001   .     S
V306     V304    10.001   1_554     S
V306     V302    10.001   1_545     S
V306     V307    10.001   .     S
V307     Er308    10.0   .     S
V307     V303    10.001   1_455     S
V307     V302    10.001   1_545     S
Er308     Ti311    10.0   1_455     S
Er308     Ti312    10.0   1_545     S
Er308     Ti309    10.0   .     S
Er308     Ti310    10.0   .     S
Ti309     Ti311    10.001   1_455     S
Ti309     Ti310    10.001   .     S
Ti310     Ti312    10.001   1_545     S
Ti311     Er308    10.0   1_655     S
Ti311     Ti309    10.001   1_655     S
Ti311     Ti312    10.001   1_645     S
Ti312     Er308    10.0   1_565     S
Ti312     Ti311    10.001   1_465     S
Ti312     Ti310    10.001   1_565     S
