data_whp
_audit_creation_date              2020-02-02
_audit_creation_method            'Pymatgen'
_symmetry_space_group_name_H-M    'P1'
_symmetry_Int_Tables_number       1
loop_
_symmetry_equiv_pos_as_xyz
  x,y,z
_cell_length_a                    31.852
_cell_length_b                    31.852
_cell_length_c                    17.9803
_cell_angle_alpha                 90.0
_cell_angle_beta                 90.0
_cell_angle_gamma                 90.0
loop_
_atom_site_label
_atom_site_type_symbol
_atom_site_fract_x
_atom_site_fract_y
_atom_site_fract_z
V1     V     0.6813   0.4593   0.7153
V2     V     0.8187   0.4593   0.2153
V3     V     0.9593   0.1813   0.2847
V4     V     0.9593   0.3187   0.7847
V5     V     0.6813   0.0407   0.2153
V6     V     0.8187   0.0407   0.7153
V7     V     0.5407   0.1813   0.7847
V8     V     0.5407   0.3187   0.2847
V9     V     0.1813   0.9593   0.2847
V10     V     0.3187   0.9593   0.7847
V11     V     0.4593   0.6813   0.7153
V12     V     0.4593   0.8187   0.2153
V13     V     0.0407   0.6813   0.2153
V14     V     0.0407   0.8187   0.7153
V15     V     0.3187   0.5407   0.2847
V16     V     0.1813   0.5407   0.7847
loop_
_geom_bond_atom_site_label_1
_geom_bond_atom_site_label_2
_geom_bond_distance
_geom_bond_site_symmetry_2
_ccdc_geom_bond_type
V1     V2    10.0   .     S
V1     V2    10.0   1_556     S
V1     V4    10.0   .     S
V1     V8    10.0   .     S
V1     V7    10.0   .     S
V1     V11    10.0   .     S
V2     V1    10.0   1_554     S
V2     V4    10.0   1_554     S
V2     V3    10.0   .     S
V2     V8    10.0   .     S
V2     V13    10.0   1_655     S
V3     V4    10.0   .     S
V3     V4    10.0   1_554     S
V3     V6    10.0   .     S
V3     V5    10.0   .     S
V3     V9    10.0   1_645     S
V4     V2    10.0   1_556     S
V4     V3    10.0   1_556     S
V4     V6    10.0   .     S
V4     V16    10.0   1_655     S
V5     V6    10.0   .     S
V5     V6    10.0   1_554     S
V5     V7    10.0   1_554     S
V5     V8    10.0   .     S
V5     V12    10.0   1_545     S
V6     V5    10.0   1_556     S
V6     V7    10.0   .     S
V6     V14    10.0   1_645     S
V7     V5    10.0   1_556     S
V7     V8    10.0   .     S
V7     V8    10.0   1_556     S
V7     V10    10.0   1_545     S
V8     V7    10.0   1_554     S
V8     V15    10.0   .     S
V9     V12    10.0   .     S
V9     V10    10.0   .     S
V9     V10    10.0   1_554     S
V9     V14    10.0   .     S
V9     V13    10.0   .     S
V9     V3    10.0   1_465     S
V10     V12    10.0   1_556     S
V10     V11    10.0   .     S
V10     V9    10.0   1_556     S
V10     V14    10.0   .     S
V10     V7    10.0   1_565     S
V11     V12    10.0   1_556     S
V11     V12    10.0   .     S
V11     V15    10.0   .     S
V11     V16    10.0   .     S
V12     V10    10.0   1_554     S
V12     V11    10.0   1_554     S
V12     V15    10.0   .     S
V12     V5    10.0   1_565     S
V13     V2    10.0   1_455     S
V13     V14    10.0   1_554     S
V13     V14    10.0   .     S
V13     V16    10.0   1_554     S
V13     V15    10.0   .     S
V14     V13    10.0   1_556     S
V14     V16    10.0   .     S
V14     V6    10.0   1_465     S
V15     V16    10.0   1_554     S
V15     V16    10.0   .     S
V16     V13    10.0   1_556     S
V16     V15    10.0   1_556     S
V16     V4    10.0   1_455     S
