data_whx
_audit_creation_date              2020-02-02
_audit_creation_method            'Pymatgen'
_symmetry_space_group_name_H-M    'P1'
_symmetry_Int_Tables_number       1
loop_
_symmetry_equiv_pos_as_xyz
  x,y,z
_cell_length_a                    28.226
_cell_length_b                    28.226
_cell_length_c                    28.4007
_cell_angle_alpha                 90.0
_cell_angle_beta                 90.0
_cell_angle_gamma                 90.0
loop_
_atom_site_label
_atom_site_type_symbol
_atom_site_fract_x
_atom_site_fract_y
_atom_site_fract_z
V1     V     0.875   0.3755   0.7495
V2     V     0.6255   0.375   0.9995
V3     V     0.625   0.6245   0.2495
V4     V     0.8745   0.625   0.4995
V5     V     0.375   0.8755   0.2495
V6     V     0.3745   0.125   0.9995
V7     V     0.125   0.1245   0.7495
V8     V     0.1255   0.875   0.4995
V9     V     0.625   0.1245   0.7505
V10     V     0.8745   0.125   0.5005
V11     V     0.875   0.8755   0.2505
V12     V     0.6255   0.875   0.0005
V13     V     0.3745   0.625   0.0005
V14     V     0.375   0.3755   0.7505
V15     V     0.1255   0.375   0.5005
V16     V     0.125   0.6245   0.2505
loop_
_geom_bond_atom_site_label_1
_geom_bond_atom_site_label_2
_geom_bond_distance
_geom_bond_site_symmetry_2
_ccdc_geom_bond_type
V1     V4    10.0   .     S
V1     V2    10.0   .     S
V1     V7    10.0   1_655     S
V1     V15    10.0   1_655     S
V1     V9    10.0   .     S
V1     V10    10.0   .     S
V2     V3    10.0   1_556     S
V2     V6    10.0   .     S
V2     V13    10.0   1_556     S
V2     V14    10.0   .     S
V2     V9    10.0   .     S
V3     V2    10.0   1_554     S
V3     V4    10.0   .     S
V3     V5    10.0   .     S
V3     V11    10.0   .     S
V3     V12    10.0   .     S
V3     V13    10.0   .     S
V4     V8    10.0   1_655     S
V4     V11    10.0   .     S
V4     V15    10.0   1_655     S
V4     V16    10.0   1_655     S
V5     V6    10.0   1_564     S
V5     V8    10.0   .     S
V5     V16    10.0   .     S
V5     V13    10.0   .     S
V5     V12    10.0   .     S
V6     V5    10.0   1_546     S
V6     V7    10.0   .     S
V6     V14    10.0   .     S
V6     V12    10.0   1_546     S
V6     V9    10.0   .     S
V7     V8    10.0   1_545     S
V7     V1    10.0   1_455     S
V7     V10    10.0   1_455     S
V7     V15    10.0   .     S
V7     V14    10.0   .     S
V8     V7    10.0   1_565     S
V8     V4    10.0   1_455     S
V8     V10    10.0   1_465     S
V8     V11    10.0   1_455     S
V8     V16    10.0   .     S
V9     V12    10.0   1_546     S
V9     V10    10.0   .     S
V9     V14    10.0   .     S
V10     V7    10.0   1_655     S
V10     V8    10.0   1_645     S
V10     V11    10.0   1_545     S
V10     V15    10.0   1_655     S
V11     V8    10.0   1_655     S
V11     V10    10.0   1_565     S
V11     V12    10.0   .     S
V11     V16    10.0   1_655     S
V12     V6    10.0   1_564     S
V12     V9    10.0   1_564     S
V12     V13    10.0   .     S
V13     V2    10.0   1_554     S
V13     V16    10.0   .     S
V13     V14    10.0   1_554     S
V14     V13    10.0   1_556     S
V14     V15    10.0   .     S
V15     V1    10.0   1_455     S
V15     V4    10.0   1_455     S
V15     V16    10.0   .     S
V15     V10    10.0   1_455     S
V16     V4    10.0   1_455     S
V16     V11    10.0   1_455     S
