data_wib
_audit_creation_date              2020-02-02
_audit_creation_method            'Pymatgen'
_symmetry_space_group_name_H-M    'P1'
_symmetry_Int_Tables_number       1
loop_
_symmetry_equiv_pos_as_xyz
  x,y,z
_cell_length_a                    19.9999
_cell_length_b                    19.9999
_cell_length_c                    37.224
_cell_angle_alpha                 90.0
_cell_angle_beta                 90.0
_cell_angle_gamma                 90.0
loop_
_atom_site_label
_atom_site_type_symbol
_atom_site_fract_x
_atom_site_fract_y
_atom_site_fract_z
V1     V     0.875   0.9665   0.2506
V2     V     0.375   0.9665   0.2494
V3     V     0.7835   0.625   0.4994
V4     V     0.7835   0.125   0.5006
V5     V     0.375   0.4665   0.7506
V6     V     0.875   0.4665   0.7494
V7     V     0.2835   0.625   0.0006
V8     V     0.2835   0.125   0.9994
V9     V     0.2165   0.375   0.5006
V10     V     0.2165   0.875   0.4994
V11     V     0.625   0.0335   0.7506
V12     V     0.125   0.0335   0.7494
V13     V     0.125   0.5335   0.2506
V14     V     0.625   0.5335   0.2494
V15     V     0.7165   0.375   0.9994
V16     V     0.7165   0.875   0.0006
loop_
_geom_bond_atom_site_label_1
_geom_bond_atom_site_label_2
_geom_bond_distance
_geom_bond_site_symmetry_2
_ccdc_geom_bond_type
V1     V14    10.0   .     S
V1     V13    10.0   1_655     S
V1     V4    10.0   1_565     S
V1     V2    10.0   1_655     S
V1     V2    10.0   .     S
V1     V16    10.0   .     S
V2     V13    10.0   .     S
V2     V14    10.0   .     S
V2     V1    10.0   1_455     S
V2     V8    10.0   1_564     S
V2     V10    10.0   .     S
V3     V10    10.0   1_655     S
V3     V9    10.0   1_655     S
V3     V14    10.0   .     S
V3     V4    10.0   .     S
V3     V4    10.0   1_565     S
V3     V6    10.0   .     S
V4     V10    10.0   1_645     S
V4     V9    10.0   1_655     S
V4     V1    10.0   1_545     S
V4     V11    10.0   .     S
V4     V3    10.0   1_545     S
V5     V12    10.0   .     S
V5     V11    10.0   .     S
V5     V7    10.0   1_556     S
V5     V6    10.0   .     S
V5     V6    10.0   1_455     S
V5     V9    10.0   .     S
V6     V11    10.0   .     S
V6     V12    10.0   1_655     S
V6     V5    10.0   1_655     S
V6     V15    10.0   .     S
V7     V16    10.0   .     S
V7     V15    10.0   1_554     S
V7     V5    10.0   1_554     S
V7     V13    10.0   .     S
V7     V8    10.0   1_554     S
V7     V8    10.0   1_564     S
V8     V16    10.0   1_546     S
V8     V15    10.0   .     S
V8     V2    10.0   1_546     S
V8     V7    10.0   1_556     S
V8     V12    10.0   .     S
V8     V7    10.0   1_546     S
V9     V4    10.0   1_455     S
V9     V3    10.0   1_455     S
V9     V10    10.0   .     S
V9     V10    10.0   1_545     S
V9     V13    10.0   .     S
V10     V4    10.0   1_465     S
V10     V3    10.0   1_455     S
V10     V9    10.0   1_565     S
V10     V12    10.0   1_565     S
V11     V16    10.0   1_546     S
V11     V12    10.0   .     S
V11     V12    10.0   1_655     S
V12     V6    10.0   1_455     S
V12     V10    10.0   1_545     S
V12     V11    10.0   1_455     S
V13     V1    10.0   1_455     S
V13     V14    10.0   1_455     S
V13     V14    10.0   .     S
V14     V13    10.0   1_655     S
V14     V15    10.0   1_554     S
V15     V7    10.0   1_556     S
V15     V14    10.0   1_556     S
V15     V16    10.0   1_556     S
V15     V16    10.0   1_546     S
V16     V8    10.0   1_564     S
V16     V11    10.0   1_564     S
V16     V15    10.0   1_554     S
V16     V15    10.0   1_564     S
