data_wil
_audit_creation_date              2020-02-02
_audit_creation_method            'Pymatgen'
_symmetry_space_group_name_H-M    'P1'
_symmetry_Int_Tables_number       1
loop_
_symmetry_equiv_pos_as_xyz
  x,y,z
_cell_length_a                    43.5491
_cell_length_b                    43.5491
_cell_length_c                    17.6405
_cell_angle_alpha                 90.0
_cell_angle_beta                 90.0
_cell_angle_gamma                 90.0
loop_
_atom_site_label
_atom_site_type_symbol
_atom_site_fract_x
_atom_site_fract_y
_atom_site_fract_z
V1     V     0.8476   0.8041   0.6495
V2     V     0.6524   0.8041   0.3505
V3     V     0.3476   0.8041   0.8505
V4     V     0.1524   0.8041   0.1495
V5     V     0.3476   0.6959   0.3505
V6     V     0.1524   0.6959   0.6495
V7     V     0.9459   0.4024   0.8995
V8     V     0.9459   0.5976   0.6005
V9     V     0.5541   0.5976   0.3995
V10     V     0.5541   0.4024   0.1005
V11     V     0.8476   0.1959   0.8505
V12     V     0.6524   0.1959   0.1495
V13     V     0.0541   0.0976   0.8995
V14     V     0.0541   0.9024   0.6005
V15     V     0.1524   0.3041   0.8505
V16     V     0.3476   0.3041   0.1495
V17     V     0.0541   0.5976   0.1005
V18     V     0.0541   0.4024   0.3995
V19     V     0.9459   0.9024   0.1005
V20     V     0.9459   0.0976   0.3995
V21     V     0.8476   0.6959   0.1495
V22     V     0.6524   0.6959   0.8505
V23     V     0.4459   0.9024   0.3995
V24     V     0.4459   0.0976   0.1005
V25     V     0.3476   0.1959   0.6495
V26     V     0.1524   0.1959   0.3505
V27     V     0.5541   0.9024   0.8995
V28     V     0.5541   0.0976   0.6005
V29     V     0.8476   0.3041   0.3505
V30     V     0.6524   0.3041   0.6495
V31     V     0.4459   0.5976   0.8995
V32     V     0.4459   0.4024   0.6005
loop_
_geom_bond_atom_site_label_1
_geom_bond_atom_site_label_2
_geom_bond_distance
_geom_bond_site_symmetry_2
_ccdc_geom_bond_type
V1     V8    10.0   .     S
V1     V2    10.0   .     S
V1     V21    10.0   1_556     S
V1     V19    10.0   1_556     S
V1     V14    10.0   1_655     S
V1     V21    10.0   .     S
V2     V9    10.0   .     S
V2     V27    10.0   1_554     S
V2     V22    10.0   1_554     S
V2     V23    10.0   .     S
V2     V22    10.0   .     S
V3     V31    10.0   .     S
V3     V4    10.0   1_556     S
V3     V5    10.0   1_556     S
V3     V5    10.0   .     S
V3     V23    10.0   .     S
V3     V27    10.0   .     S
V4     V17    10.0   .     S
V4     V3    10.0   1_554     S
V4     V6    10.0   1_554     S
V4     V14    10.0   .     S
V4     V6    10.0   .     S
V4     V19    10.0   1_455     S
V5     V23    10.0   .     S
V5     V6    10.0   .     S
V5     V9    10.0   .     S
V5     V3    10.0   1_554     S
V5     V31    10.0   1_554     S
V6     V14    10.0   .     S
V6     V4    10.0   1_556     S
V6     V17    10.0   1_556     S
V6     V8    10.0   1_455     S
V7     V15    10.0   1_655     S
V7     V8    10.0   .     S
V7     V11    10.0   .     S
V7     V18    10.0   1_655     S
V7     V29    10.0   1_556     S
V7     V18    10.0   1_656     S
V8     V17    10.0   1_656     S
V8     V6    10.0   1_655     S
V8     V21    10.0   .     S
V8     V17    10.0   1_655     S
V9     V10    10.0   .     S
V9     V31    10.0   1_554     S
V9     V22    10.0   .     S
V9     V31    10.0   .     S
V10     V16    10.0   .     S
V10     V12    10.0   .     S
V10     V32    10.0   .     S
V10     V30    10.0   1_554     S
V10     V32    10.0   1_554     S
V11     V12    10.0   1_556     S
V11     V29    10.0   .     S
V11     V20    10.0   .     S
V11     V13    10.0   1_655     S
V11     V29    10.0   1_556     S
V12     V11    10.0   1_554     S
V12     V28    10.0   .     S
V12     V30    10.0   .     S
V12     V24    10.0   .     S
V12     V30    10.0   1_554     S
V13     V20    10.0   1_455     S
V13     V11    10.0   1_455     S
V13     V14    10.0   1_545     S
V13     V15    10.0   .     S
V13     V26    10.0   1_556     S
V13     V20    10.0   1_456     S
V14     V19    10.0   1_456     S
V14     V1    10.0   1_455     S
V14     V13    10.0   1_565     S
V14     V19    10.0   1_455     S
V15     V7    10.0   1_455     S
V15     V26    10.0   .     S
V15     V18    10.0   .     S
V15     V16    10.0   1_556     S
V15     V26    10.0   1_556     S
V16     V24    10.0   .     S
V16     V15    10.0   1_554     S
V16     V25    10.0   .     S
V16     V32    10.0   .     S
V16     V25    10.0   1_554     S
V17     V6    10.0   1_554     S
V17     V8    10.0   1_454     S
V17     V8    10.0   1_455     S
V17     V21    10.0   1_455     S
V17     V18    10.0   .     S
V18     V7    10.0   1_455     S
V18     V7    10.0   1_454     S
V18     V29    10.0   1_455     S
V18     V26    10.0   .     S
V19     V1    10.0   1_554     S
V19     V14    10.0   1_654     S
V19     V14    10.0   1_655     S
V19     V4    10.0   1_655     S
V19     V20    10.0   1_565     S
V19     V21    10.0   .     S
V20     V13    10.0   1_655     S
V20     V13    10.0   1_654     S
V20     V26    10.0   1_655     S
V20     V19    10.0   1_545     S
V20     V29    10.0   .     S
V21     V1    10.0   1_554     S
V21     V17    10.0   1_655     S
V21     V22    10.0   1_554     S
V22     V27    10.0   .     S
V22     V21    10.0   1_556     S
V22     V2    10.0   1_556     S
V22     V31    10.0   .     S
V23     V27    10.0   1_554     S
V23     V24    10.0   1_565     S
V23     V27    10.0   .     S
V24     V28    10.0   .     S
V24     V23    10.0   1_545     S
V24     V25    10.0   1_554     S
V24     V28    10.0   1_554     S
V25     V32    10.0   .     S
V25     V26    10.0   .     S
V25     V16    10.0   1_556     S
V25     V24    10.0   1_556     S
V25     V28    10.0   .     S
V26     V15    10.0   1_554     S
V26     V13    10.0   1_554     S
V26     V20    10.0   1_455     S
V27     V23    10.0   1_556     S
V27     V2    10.0   1_556     S
V27     V28    10.0   1_565     S
V28     V24    10.0   1_556     S
V28     V27    10.0   1_545     S
V28     V30    10.0   .     S
V29     V11    10.0   1_554     S
V29     V7    10.0   1_554     S
V29     V18    10.0   1_655     S
V29     V30    10.0   .     S
V30     V12    10.0   1_556     S
V30     V10    10.0   1_556     S
V30     V32    10.0   .     S
V31     V5    10.0   1_556     S
V31     V9    10.0   1_556     S
V31     V32    10.0   .     S
V32     V10    10.0   1_556     S
