data_wjm
_audit_creation_date              2020-02-02
_audit_creation_method            'Pymatgen'
_symmetry_space_group_name_H-M    'P1'
_symmetry_Int_Tables_number       1
loop_
_symmetry_equiv_pos_as_xyz
  x,y,z
_cell_length_a                    25.0175
_cell_length_b                    25.0175
_cell_length_c                    24.9848
_cell_angle_alpha                 90.0
_cell_angle_beta                 90.0
_cell_angle_gamma                 120.0
loop_
_atom_site_label
_atom_site_type_symbol
_atom_site_fract_x
_atom_site_fract_y
_atom_site_fract_z
V1     V     0.1632   0.7229   0.5252
V2     V     0.8368   0.2771   0.5252
V3     V     0.5597   0.7229   0.4748
V4     V     0.4403   0.2771   0.4748
V5     V     0.2771   0.4403   0.1918
V6     V     0.7229   0.5597   0.1918
V7     V     0.4403   0.1632   0.8585
V8     V     0.5597   0.8368   0.8585
V9     V     0.7229   0.1632   0.1415
V10     V     0.2771   0.8368   0.1415
V11     V     0.8368   0.5597   0.8082
V12     V     0.1632   0.4403   0.8082
loop_
_geom_bond_atom_site_label_1
_geom_bond_atom_site_label_2
_geom_bond_distance
_geom_bond_site_symmetry_2
_ccdc_geom_bond_type
V1     V10    10.0   .     S
V1     V3    10.0   .     S
V1     V2    10.0   1_455     S
V1     V12    10.0   .     S
V1     V11    10.0   1_455     S
V2     V9    10.0   .     S
V2     V4    10.0   .     S
V2     V1    10.0   1_655     S
V2     V11    10.0   .     S
V2     V12    10.0   1_655     S
V3     V8    10.0   .     S
V3     V5    10.0   .     S
V3     V6    10.0   .     S
V3     V4    10.0   .     S
V4     V7    10.0   .     S
V4     V6    10.0   .     S
V4     V5    10.0   .     S
V5     V12    10.0   1_554     S
V5     V10    10.0   .     S
V5     V6    10.0   .     S
V6     V11    10.0   1_554     S
V6     V9    10.0   .     S
V7     V11    10.0   .     S
V7     V10    10.0   1_546     S
V7     V9    10.0   1_556     S
V7     V8    10.0   1_545     S
V8     V12    10.0   .     S
V8     V9    10.0   1_566     S
V8     V10    10.0   1_556     S
V8     V7    10.0   1_565     S
V9     V8    10.0   1_544     S
V9     V7    10.0   1_554     S
V9     V10    10.0   1_545     S
V10     V7    10.0   1_564     S
V10     V8    10.0   1_554     S
V10     V9    10.0   1_565     S
V11     V6    10.0   1_556     S
V11     V1    10.0   1_655     S
V11     V12    10.0   1_655     S
V12     V5    10.0   1_556     S
V12     V2    10.0   1_455     S
V12     V11    10.0   1_455     S
