data_wjo
_audit_creation_date              2020-02-02
_audit_creation_method            'Pymatgen'
_symmetry_space_group_name_H-M    'P1'
_symmetry_Int_Tables_number       1
loop_
_symmetry_equiv_pos_as_xyz
  x,y,z
_cell_length_a                    25.4387
_cell_length_b                    25.4387
_cell_length_c                    22.3676
_cell_angle_alpha                 90.0
_cell_angle_beta                 90.0
_cell_angle_gamma                 120.0
loop_
_atom_site_label
_atom_site_type_symbol
_atom_site_fract_x
_atom_site_fract_y
_atom_site_fract_z
V1     V     0.821   0.5803   0.9708
V2     V     0.5803   0.821   0.3626
V3     V     0.5803   0.7593   0.8041
V4     V     0.821   0.2407   0.1959
V5     V     0.7593   0.179   0.6374
V6     V     0.7593   0.5803   0.5292
V7     V     0.2407   0.4197   0.0292
V8     V     0.4197   0.179   0.8626
V9     V     0.179   0.7593   0.6959
V10     V     0.4197   0.2407   0.3041
V11     V     0.2407   0.821   0.1374
V12     V     0.179   0.4197   0.4708
loop_
_geom_bond_atom_site_label_1
_geom_bond_atom_site_label_2
_geom_bond_distance
_geom_bond_site_symmetry_2
_ccdc_geom_bond_type
V1     V3    10.0   .     S
V1     V4    10.0   1_556     S
V1     V6    10.0   .     S
V1     V11    10.0   1_656     S
V1     V9    10.0   1_655     S
V2     V11    10.0   .     S
V2     V3    10.0   .     S
V2     V6    10.0   .     S
V2     V5    10.0   1_565     S
V2     V4    10.0   1_565     S
V3     V6    10.0   .     S
V3     V5    10.0   1_565     S
V3     V7    10.0   1_556     S
V4     V1    10.0   1_554     S
V4     V5    10.0   .     S
V4     V2    10.0   1_545     S
V4     V12    10.0   1_655     S
V4     V7    10.0   1_655     S
V5     V3    10.0   1_545     S
V5     V2    10.0   1_545     S
V5     V12    10.0   1_655     S
V5     V8    10.0   .     S
V6     V10    10.0   .     S
V6     V9    10.0   1_655     S
V7     V3    10.0   1_554     S
V7     V12    10.0   .     S
V7     V4    10.0   1_455     S
V7     V10    10.0   .     S
V7     V8    10.0   1_554     S
V8     V9    10.0   1_545     S
V8     V11    10.0   1_546     S
V8     V10    10.0   1_556     S
V8     V7    10.0   1_556     S
V9     V6    10.0   1_455     S
V9     V12    10.0   .     S
V9     V11    10.0   1_556     S
V9     V8    10.0   1_565     S
V9     V1    10.0   1_455     S
V10     V12    10.0   .     S
V10     V8    10.0   1_554     S
V10     V11    10.0   1_545     S
V11     V9    10.0   1_554     S
V11     V1    10.0   1_454     S
V11     V8    10.0   1_564     S
V11     V10    10.0   1_565     S
V12     V5    10.0   1_455     S
V12     V4    10.0   1_455     S
