data_wks
_audit_creation_date              2020-02-02
_audit_creation_method            'Pymatgen'
_symmetry_space_group_name_H-M    'P1'
_symmetry_Int_Tables_number       1
loop_
_symmetry_equiv_pos_as_xyz
  x,y,z
_cell_length_a                    27.8744
_cell_length_b                    27.8744
_cell_length_c                    37.1122
_cell_angle_alpha                 90.0
_cell_angle_beta                 90.0
_cell_angle_gamma                 120.0
loop_
_atom_site_label
_atom_site_type_symbol
_atom_site_fract_x
_atom_site_fract_y
_atom_site_fract_z
V1     V     0.2929   0.8928   0.3653
V2     V     0.1072   0.7071   0.1347
V3     V     0.8928   0.2929   0.1347
V4     V     0.7071   0.1072   0.3653
V5     V     0.8928   0.5999   0.3653
V6     V     0.7071   0.5999   0.1347
V7     V     0.1072   0.4001   0.3653
V8     V     0.2929   0.4001   0.1347
V9     V     0.5999   0.7071   0.3653
V10     V     0.5999   0.8928   0.1347
V11     V     0.4001   0.2929   0.3653
V12     V     0.4001   0.1072   0.1347
V13     V     0.8928   0.2929   0.8653
V14     V     0.7071   0.1072   0.6347
V15     V     0.1072   0.7071   0.8653
V16     V     0.2929   0.8928   0.6347
V17     V     0.5999   0.8928   0.8653
V18     V     0.5999   0.7071   0.6347
V19     V     0.4001   0.1072   0.8653
V20     V     0.4001   0.2929   0.6347
V21     V     0.8928   0.5999   0.6347
V22     V     0.7071   0.5999   0.8653
V23     V     0.2929   0.4001   0.8653
V24     V     0.1072   0.4001   0.6347
loop_
_geom_bond_atom_site_label_1
_geom_bond_atom_site_label_2
_geom_bond_distance
_geom_bond_site_symmetry_2
_ccdc_geom_bond_type
V1     V5    10.0   1_455     S
V1     V11    10.0   1_565     S
V1     V12    10.0   1_565     S
V1     V2    10.0   .     S
V1     V4    10.0   1_565     S
V1     V16    10.0   .     S
V2     V5    10.0   1_455     S
V2     V6    10.0   1_455     S
V2     V12    10.0   1_565     S
V2     V3    10.0   1_455     S
V2     V15    10.0   1_554     S
V3     V7    10.0   1_655     S
V3     V8    10.0   1_655     S
V3     V4    10.0   .     S
V3     V2    10.0   1_655     S
V3     V10    10.0   1_545     S
V3     V13    10.0   1_554     S
V4     V7    10.0   1_655     S
V4     V1    10.0   1_545     S
V4     V9    10.0   1_545     S
V4     V10    10.0   1_545     S
V4     V14    10.0   .     S
V5     V1    10.0   1_655     S
V5     V2    10.0   1_655     S
V5     V6    10.0   .     S
V5     V7    10.0   1_655     S
V5     V9    10.0   .     S
V5     V21    10.0   .     S
V6     V2    10.0   1_655     S
V6     V8    10.0   .     S
V6     V9    10.0   .     S
V6     V10    10.0   .     S
V6     V22    10.0   1_554     S
V7     V4    10.0   1_455     S
V7     V3    10.0   1_455     S
V7     V8    10.0   .     S
V7     V5    10.0   1_455     S
V7     V11    10.0   .     S
V7     V24    10.0   .     S
V8     V3    10.0   1_455     S
V8     V11    10.0   .     S
V8     V12    10.0   .     S
V8     V23    10.0   1_554     S
V9     V4    10.0   1_565     S
V9     V10    10.0   .     S
V9     V11    10.0   .     S
V9     V18    10.0   .     S
V10     V4    10.0   1_565     S
V10     V3    10.0   1_565     S
V10     V12    10.0   1_565     S
V10     V17    10.0   1_554     S
V11     V1    10.0   1_545     S
V11     V12    10.0   .     S
V11     V20    10.0   .     S
V12     V1    10.0   1_545     S
V12     V2    10.0   1_545     S
V12     V10    10.0   1_545     S
V12     V19    10.0   1_554     S
V13     V3    10.0   1_556     S
V13     V23    10.0   1_655     S
V13     V24    10.0   1_655     S
V13     V17    10.0   1_545     S
V13     V14    10.0   .     S
V13     V15    10.0   1_655     S
V14     V24    10.0   1_655     S
V14     V17    10.0   1_545     S
V14     V18    10.0   1_545     S
V14     V16    10.0   1_545     S
V15     V2    10.0   1_556     S
V15     V19    10.0   1_565     S
V15     V16    10.0   .     S
V15     V13    10.0   1_455     S
V15     V22    10.0   1_455     S
V15     V21    10.0   1_455     S
V16     V19    10.0   1_565     S
V16     V20    10.0   1_565     S
V16     V14    10.0   1_565     S
V16     V21    10.0   1_455     S
V17     V10    10.0   1_556     S
V17     V13    10.0   1_565     S
V17     V14    10.0   1_565     S
V17     V18    10.0   .     S
V17     V19    10.0   1_565     S
V17     V22    10.0   .     S
V18     V14    10.0   1_565     S
V18     V20    10.0   .     S
V18     V22    10.0   .     S
V18     V21    10.0   .     S
V19     V12    10.0   1_556     S
V19     V23    10.0   .     S
V19     V15    10.0   1_545     S
V19     V16    10.0   1_545     S
V19     V20    10.0   .     S
V19     V17    10.0   1_545     S
V20     V23    10.0   .     S
V20     V24    10.0   .     S
V20     V16    10.0   1_545     S
V21     V15    10.0   1_655     S
V21     V16    10.0   1_655     S
V21     V22    10.0   .     S
V21     V24    10.0   1_655     S
V22     V6    10.0   1_556     S
V22     V15    10.0   1_655     S
V22     V23    10.0   .     S
V23     V8    10.0   1_556     S
V23     V13    10.0   1_455     S
V23     V24    10.0   .     S
V24     V13    10.0   1_455     S
V24     V14    10.0   1_455     S
V24     V21    10.0   1_455     S
