data_wle
_audit_creation_date              2020-02-02
_audit_creation_method            'Pymatgen'
_symmetry_space_group_name_H-M    'P1'
_symmetry_Int_Tables_number       1
loop_
_symmetry_equiv_pos_as_xyz
  x,y,z
_cell_length_a                    65.836
_cell_length_b                    65.836
_cell_length_c                    14.8154
_cell_angle_alpha                 90.0
_cell_angle_beta                 90.0
_cell_angle_gamma                 120.0
loop_
_atom_site_label
_atom_site_type_symbol
_atom_site_fract_x
_atom_site_fract_y
_atom_site_fract_z
V1     V     0.4166   0.4813   0.5222
V2     V     0.4813   0.4166   0.9778
V3     V     0.5834   0.5187   0.4778
V4     V     0.5187   0.5834   0.0222
V5     V     0.1853   0.9167   0.3555
V6     V     0.148   0.75   0.3111
V7     V     0.0833   0.8147   0.8555
V8     V     0.25   0.852   0.8111
V9     V     0.0647   0.4813   0.0222
V10     V     0.9353   0.4166   0.4778
V11     V     0.9353   0.5187   0.9778
V12     V     0.0647   0.5834   0.5222
V13     V     0.7314   0.8147   0.3555
V14     V     0.7314   0.9167   0.8555
V15     V     0.602   0.75   0.8111
V16     V     0.602   0.852   0.3111
V17     V     0.8147   0.7314   0.1445
V18     V     0.852   0.602   0.1889
V19     V     0.9167   0.7314   0.6445
V20     V     0.75   0.602   0.6889
V21     V     0.4813   0.0647   0.4778
V22     V     0.4166   0.9353   0.0222
V23     V     0.5834   0.0647   0.9778
V24     V     0.5187   0.9353   0.5222
V25     V     0.25   0.398   0.3111
V26     V     0.0833   0.2686   0.3555
V27     V     0.148   0.398   0.8111
V28     V     0.1853   0.2686   0.8555
V29     V     0.2686   0.1853   0.6445
V30     V     0.398   0.25   0.1889
V31     V     0.398   0.148   0.6889
V32     V     0.2686   0.0833   0.1445
V33     V     0.8147   0.0833   0.6445
V34     V     0.75   0.148   0.1889
V35     V     0.9167   0.1853   0.1445
V36     V     0.852   0.25   0.6889
loop_
_geom_bond_atom_site_label_1
_geom_bond_atom_site_label_2
_geom_bond_distance
_geom_bond_site_symmetry_2
_ccdc_geom_bond_type
V1     V2    10.0   .     S
V1     V4    10.0   1_556     S
V1     V3    10.0   .     S
V1     V4    10.0   .     S
V1     V25    10.0   .     S
V2     V3    10.0   .     S
V2     V4    10.0   1_556     S
V2     V3    10.0   1_556     S
V2     V30    10.0   1_556     S
V3     V4    10.0   .     S
V3     V2    10.0   1_554     S
V3     V20    10.0   .     S
V4     V1    10.0   1_554     S
V4     V2    10.0   1_554     S
V4     V15    10.0   1_554     S
V5     V7    10.0   1_554     S
V5     V6    10.0   .     S
V5     V8    10.0   .     S
V5     V7    10.0   .     S
V5     V32    10.0   1_565     S
V6     V7    10.0   1_554     S
V6     V8    10.0   1_554     S
V6     V8    10.0   .     S
V6     V12    10.0   .     S
V7     V6    10.0   1_556     S
V7     V5    10.0   1_556     S
V7     V8    10.0   .     S
V7     V19    10.0   1_455     S
V8     V6    10.0   1_556     S
V8     V22    10.0   1_556     S
V9     V10    10.0   1_455     S
V9     V12    10.0   .     S
V9     V11    10.0   1_454     S
V9     V12    10.0   1_554     S
V9     V27    10.0   1_554     S
V10     V12    10.0   1_655     S
V10     V9    10.0   1_655     S
V10     V11    10.0   1_554     S
V10     V11    10.0   .     S
V10     V36    10.0   .     S
V11     V10    10.0   1_556     S
V11     V9    10.0   1_656     S
V11     V12    10.0   1_655     S
V11     V18    10.0   1_556     S
V12     V10    10.0   1_455     S
V12     V11    10.0   1_455     S
V12     V9    10.0   1_556     S
V13     V16    10.0   .     S
V13     V14    10.0   1_554     S
V13     V15    10.0   .     S
V13     V14    10.0   .     S
V13     V17    10.0   .     S
V14     V16    10.0   1_556     S
V14     V13    10.0   1_556     S
V14     V15    10.0   .     S
V14     V33    10.0   1_565     S
V15     V4    10.0   1_556     S
V15     V16    10.0   1_556     S
V15     V16    10.0   .     S
V16     V14    10.0   1_554     S
V16     V15    10.0   1_554     S
V16     V24    10.0   .     S
V17     V18    10.0   .     S
V17     V19    10.0   .     S
V17     V20    10.0   1_554     S
V17     V19    10.0   1_554     S
V18     V19    10.0   .     S
V18     V20    10.0   .     S
V18     V20    10.0   1_554     S
V18     V11    10.0   1_554     S
V19     V20    10.0   .     S
V19     V17    10.0   1_556     S
V19     V7    10.0   1_655     S
V20     V17    10.0   1_556     S
V20     V18    10.0   1_556     S
V21     V22    10.0   1_545     S
V21     V23    10.0   1_554     S
V21     V24    10.0   1_545     S
V21     V23    10.0   .     S
V21     V31    10.0   .     S
V22     V8    10.0   1_554     S
V22     V23    10.0   1_564     S
V22     V21    10.0   1_565     S
V22     V24    10.0   .     S
V22     V24    10.0   1_554     S
V23     V22    10.0   1_546     S
V23     V21    10.0   1_556     S
V23     V24    10.0   1_545     S
V23     V34    10.0   1_556     S
V24     V21    10.0   1_565     S
V24     V23    10.0   1_565     S
V24     V22    10.0   1_556     S
V25     V27    10.0   .     S
V25     V26    10.0   .     S
V25     V28    10.0   1_554     S
V25     V27    10.0   1_554     S
V26     V27    10.0   .     S
V26     V28    10.0   .     S
V26     V28    10.0   1_554     S
V26     V35    10.0   1_455     S
V27     V28    10.0   .     S
V27     V25    10.0   1_556     S
V27     V9    10.0   1_556     S
V28     V25    10.0   1_556     S
V28     V26    10.0   1_556     S
V28     V29    10.0   .     S
V29     V31    10.0   .     S
V29     V30    10.0   .     S
V29     V32    10.0   .     S
V29     V32    10.0   1_556     S
V30     V31    10.0   .     S
V30     V32    10.0   .     S
V30     V31    10.0   1_554     S
V30     V2    10.0   1_554     S
V31     V32    10.0   1_556     S
V31     V30    10.0   1_556     S
V32     V31    10.0   1_554     S
V32     V29    10.0   1_554     S
V32     V5    10.0   1_545     S
V33     V35    10.0   1_556     S
V33     V36    10.0   .     S
V33     V34    10.0   .     S
V33     V35    10.0   .     S
V33     V14    10.0   1_545     S
V34     V23    10.0   1_554     S
V34     V35    10.0   .     S
V34     V36    10.0   1_554     S
V34     V36    10.0   .     S
V35     V36    10.0   1_554     S
V35     V33    10.0   1_554     S
V35     V26    10.0   1_655     S
V36     V35    10.0   1_556     S
V36     V34    10.0   1_556     S
