data_wlk
_audit_creation_date              2020-02-02
_audit_creation_method            'Pymatgen'
_symmetry_space_group_name_H-M    'P1'
_symmetry_Int_Tables_number       1
loop_
_symmetry_equiv_pos_as_xyz
  x,y,z
_cell_length_a                    38.0336
_cell_length_b                    38.0336
_cell_length_c                    17.9473
_cell_angle_alpha                 90.0
_cell_angle_beta                 90.0
_cell_angle_gamma                 120.0
loop_
_atom_site_label
_atom_site_type_symbol
_atom_site_fract_x
_atom_site_fract_y
_atom_site_fract_z
V1     V     0.8596   0.5995   0.4514
V2     V     0.8071   0.7338   0.8819
V3     V     0.7338   0.9268   0.1181
V4     V     0.5995   0.7399   0.5486
V5     V     0.4066   0.4737   0.7847
V6     V     0.5934   0.5263   0.2153
V7     V     0.9268   0.1929   0.8819
V8     V     0.7399   0.1404   0.4514
V9     V     0.9328   0.4066   0.2153
V10     V     0.0672   0.5934   0.7847
V11     V     0.4737   0.0672   0.2153
V12     V     0.5263   0.9328   0.7847
V13     V     0.2601   0.8596   0.5486
V14     V     0.0732   0.8071   0.1181
V15     V     0.1929   0.2662   0.1181
V16     V     0.1404   0.4005   0.5486
V17     V     0.4005   0.2601   0.4514
V18     V     0.2662   0.0732   0.8819
loop_
_geom_bond_atom_site_label_1
_geom_bond_atom_site_label_2
_geom_bond_distance
_geom_bond_site_symmetry_2
_ccdc_geom_bond_type
V1     V10    10.0   1_655     S
V1     V2    10.0   .     S
V1     V6    10.0   .     S
V1     V9    10.0   .     S
V1     V14    10.0   1_655     S
V2     V4    10.0   .     S
V2     V3    10.0   1_556     S
V2     V6    10.0   1_556     S
V2     V14    10.0   1_656     S
V3     V8    10.0   1_565     S
V3     V4    10.0   .     S
V3     V2    10.0   1_554     S
V3     V7    10.0   1_564     S
V3     V12    10.0   1_554     S
V4     V6    10.0   .     S
V4     V12    10.0   .     S
V4     V5    10.0   .     S
V5     V15    10.0   1_556     S
V5     V6    10.0   1_556     S
V5     V16    10.0   .     S
V5     V17    10.0   .     S
V6     V5    10.0   1_554     S
V6     V2    10.0   1_554     S
V6     V17    10.0   .     S
V7     V3    10.0   1_546     S
V7     V16    10.0   1_655     S
V7     V8    10.0   .     S
V7     V15    10.0   1_656     S
V7     V9    10.0   1_556     S
V8     V3    10.0   1_545     S
V8     V12    10.0   1_545     S
V8     V9    10.0   .     S
V8     V11    10.0   .     S
V9     V7    10.0   1_554     S
V9     V10    10.0   1_654     S
V9     V16    10.0   1_655     S
V10     V1    10.0   1_455     S
V10     V9    10.0   1_456     S
V10     V14    10.0   1_556     S
V10     V13    10.0   .     S
V10     V16    10.0   .     S
V11     V18    10.0   1_554     S
V11     V12    10.0   1_544     S
V11     V13    10.0   1_545     S
V11     V17    10.0   .     S
V12     V8    10.0   1_565     S
V12     V11    10.0   1_566     S
V12     V3    10.0   1_556     S
V12     V13    10.0   .     S
V13     V11    10.0   1_565     S
V13     V14    10.0   .     S
V13     V18    10.0   1_565     S
V14     V10    10.0   1_554     S
V14     V1    10.0   1_455     S
V14     V18    10.0   1_564     S
V14     V2    10.0   1_454     S
V15     V5    10.0   1_554     S
V15     V7    10.0   1_454     S
V15     V17    10.0   .     S
V15     V16    10.0   .     S
V15     V18    10.0   1_554     S
V16     V7    10.0   1_455     S
V16     V9    10.0   1_455     S
V17     V18    10.0   .     S
V18     V11    10.0   1_556     S
V18     V14    10.0   1_546     S
V18     V13    10.0   1_545     S
V18     V15    10.0   1_556     S
