data_wlu
_audit_creation_date              2020-02-02
_audit_creation_method            'Pymatgen'
_symmetry_space_group_name_H-M    'P1'
_symmetry_Int_Tables_number       1
loop_
_symmetry_equiv_pos_as_xyz
  x,y,z
_cell_length_a                    38.4266
_cell_length_b                    38.4266
_cell_length_c                    35.4702
_cell_angle_alpha                 90.0
_cell_angle_beta                 90.0
_cell_angle_gamma                 120.0
loop_
_atom_site_label
_atom_site_type_symbol
_atom_site_fract_x
_atom_site_fract_y
_atom_site_fract_z
V1     V     0.1453   0.7558   0.7141
V2     V     0.8547   0.6105   0.7859
V3     V     0.0891   0.8119   0.4526
V4     V     0.9438   0.5214   0.3807
V5     V     0.9109   0.7228   0.0474
V6     V     0.0562   0.5775   0.1193
V7     V     0.2442   0.8547   0.2141
V8     V     0.3895   0.1453   0.2859
V9     V     0.2772   0.0891   0.5474
V10     V     0.4225   0.9438   0.6193
V11     V     0.4786   0.0562   0.8807
V12     V     0.188   0.9109   0.9526
V13     V     0.7228   0.9109   0.4526
V14     V     0.5775   0.0562   0.3807
V15     V     0.6105   0.8547   0.7141
V16     V     0.7558   0.1453   0.7859
V17     V     0.8119   0.0891   0.0474
V18     V     0.5214   0.9438   0.1193
V19     V     0.0891   0.2772   0.9526
V20     V     0.9438   0.4225   0.8807
V21     V     0.0562   0.4786   0.6193
V22     V     0.9109   0.188   0.5474
V23     V     0.8547   0.2442   0.2859
V24     V     0.1453   0.3895   0.2141
V25     V     0.6105   0.7558   0.2141
V26     V     0.7558   0.6105   0.2859
V27     V     0.8119   0.7228   0.5474
V28     V     0.5214   0.5775   0.6193
V29     V     0.7228   0.8119   0.9526
V30     V     0.5775   0.5214   0.8807
V31     V     0.188   0.2772   0.4526
V32     V     0.4786   0.4225   0.3807
V33     V     0.4225   0.4786   0.1193
V34     V     0.2772   0.188   0.0474
V35     V     0.2442   0.3895   0.7141
V36     V     0.3895   0.2442   0.7859
loop_
_geom_bond_atom_site_label_1
_geom_bond_atom_site_label_2
_geom_bond_distance
_geom_bond_site_symmetry_2
_ccdc_geom_bond_type
V1     V12    10.0   .     S
V1     V2    10.0   1_455     S
V1     V3    10.0   .     S
V1     V21    10.0   .     S
V1     V10    10.0   .     S
V2     V27    10.0   .     S
V2     V1    10.0   1_655     S
V2     V5    10.0   1_556     S
V2     V20    10.0   .     S
V2     V30    10.0   .     S
V3     V7    10.0   .     S
V3     V4    10.0   1_455     S
V3     V27    10.0   1_455     S
V3     V9    10.0   1_565     S
V4     V21    10.0   1_655     S
V4     V6    10.0   1_655     S
V4     V3    10.0   1_655     S
V4     V26    10.0   .     S
V4     V23    10.0   .     S
V5     V26    10.0   .     S
V5     V2    10.0   1_554     S
V5     V6    10.0   1_655     S
V5     V12    10.0   1_654     S
V5     V29    10.0   1_554     S
V6     V20    10.0   1_454     S
V6     V4    10.0   1_455     S
V6     V5    10.0   1_455     S
V6     V7    10.0   .     S
V6     V24    10.0   .     S
V7     V8    10.0   1_565     S
V7     V12    10.0   1_554     S
V7     V18    10.0   .     S
V8     V7    10.0   1_545     S
V8     V9    10.0   .     S
V8     V14    10.0   .     S
V8     V34    10.0   .     S
V8     V32    10.0   .     S
V9     V10    10.0   1_545     S
V9     V3    10.0   1_545     S
V9     V36    10.0   .     S
V9     V31    10.0   .     S
V10     V11    10.0   1_565     S
V10     V9    10.0   1_565     S
V10     V14    10.0   1_565     S
V10     V15    10.0   .     S
V11     V10    10.0   1_545     S
V11     V12    10.0   1_545     S
V11     V36    10.0   .     S
V11     V18    10.0   1_546     S
V11     V16    10.0   .     S
V12     V5    10.0   1_456     S
V12     V7    10.0   1_556     S
V12     V11    10.0   1_565     S
V12     V34    10.0   1_566     S
V13     V25    10.0   .     S
V13     V15    10.0   .     S
V13     V14    10.0   1_565     S
V13     V22    10.0   1_565     S
V13     V27    10.0   .     S
V14     V10    10.0   1_545     S
V14     V18    10.0   1_545     S
V14     V13    10.0   1_545     S
V14     V23    10.0   .     S
V15     V29    10.0   .     S
V15     V16    10.0   1_565     S
V15     V28    10.0   .     S
V16     V22    10.0   .     S
V16     V15    10.0   1_545     S
V16     V17    10.0   1_556     S
V16     V20    10.0   .     S
V17     V16    10.0   1_554     S
V17     V18    10.0   1_545     S
V17     V29    10.0   1_544     S
V17     V23    10.0   .     S
V17     V19    10.0   1_654     S
V18     V11    10.0   1_564     S
V18     V14    10.0   1_565     S
V18     V17    10.0   1_565     S
V18     V25    10.0   .     S
V19     V24    10.0   1_556     S
V19     V20    10.0   1_455     S
V19     V17    10.0   1_456     S
V19     V35    10.0   .     S
V19     V34    10.0   1_556     S
V20     V6    10.0   1_656     S
V20     V21    10.0   1_655     S
V20     V19    10.0   1_655     S
V21     V4    10.0   1_455     S
V21     V20    10.0   1_455     S
V21     V22    10.0   1_455     S
V21     V35    10.0   .     S
V22     V13    10.0   1_545     S
V22     V21    10.0   1_655     S
V22     V23    10.0   .     S
V22     V31    10.0   1_655     S
V23     V24    10.0   1_655     S
V24     V19    10.0   1_554     S
V24     V23    10.0   1_455     S
V24     V31    10.0   .     S
V24     V33    10.0   .     S
V25     V26    10.0   .     S
V25     V29    10.0   1_554     S
V25     V33    10.0   .     S
V26     V27    10.0   .     S
V26     V32    10.0   .     S
V27     V3    10.0   1_655     S
V27     V28    10.0   .     S
V28     V32    10.0   .     S
V28     V30    10.0   .     S
V28     V35    10.0   .     S
V29     V17    10.0   1_566     S
V29     V25    10.0   1_556     S
V29     V30    10.0   .     S
V29     V5    10.0   1_556     S
V30     V33    10.0   1_556     S
V30     V36    10.0   .     S
V31     V22    10.0   1_455     S
V31     V32    10.0   .     S
V31     V35    10.0   .     S
V32     V33    10.0   .     S
V33     V30    10.0   1_554     S
V33     V34    10.0   .     S
V34     V12    10.0   1_544     S
V34     V36    10.0   1_554     S
V34     V19    10.0   1_554     S
V35     V36    10.0   .     S
V36     V34    10.0   1_556     S
