data_wmd
_audit_creation_date              2020-02-02
_audit_creation_method            'Pymatgen'
_symmetry_space_group_name_H-M    'P1'
_symmetry_Int_Tables_number       1
loop_
_symmetry_equiv_pos_as_xyz
  x,y,z
_cell_length_a                    18.8026
_cell_length_b                    18.8026
_cell_length_c                    38.2835
_cell_angle_alpha                 90.0
_cell_angle_beta                 90.0
_cell_angle_gamma                 120.0
loop_
_atom_site_label
_atom_site_type_symbol
_atom_site_fract_x
_atom_site_fract_y
_atom_site_fract_z
V1     V     0.9373   0.3745   0.7055
V2     V     0.9373   0.5627   0.4612
V3     V     0.6255   0.0627   0.1278
V4     V     0.4373   0.0627   0.3722
V5     V     0.5627   0.6255   0.2945
V6     V     0.3745   0.4373   0.5388
V7     V     0.0627   0.4373   0.9612
V8     V     0.0627   0.6255   0.2055
V9     V     0.5627   0.9373   0.8722
V10     V     0.3745   0.9373   0.6278
V11     V     0.6255   0.5627   0.0388
V12     V     0.4373   0.3745   0.7945
loop_
_geom_bond_atom_site_label_1
_geom_bond_atom_site_label_2
_geom_bond_distance
_geom_bond_site_symmetry_2
_ccdc_geom_bond_type
V1     V6    10.0   1_655     S
V1     V2    10.0   .     S
V1     V9    10.0   1_545     S
V1     V12    10.0   1_655     S
V1     V7    10.0   1_655     S
V1     V12    10.0   .     S
V2     V10    10.0   1_655     S
V2     V4    10.0   1_665     S
V2     V5    10.0   .     S
V2     V8    10.0   1_655     S
V2     V4    10.0   .     S
V3     V5    10.0   1_545     S
V3     V11    10.0   1_545     S
V3     V4    10.0   .     S
V3     V11    10.0   .     S
V3     V7    10.0   1_654     S
V3     V9    10.0   1_544     S
V4     V2    10.0   1_445     S
V4     V10    10.0   1_545     S
V4     V8    10.0   1_545     S
V4     V6    10.0   .     S
V5     V3    10.0   1_565     S
V5     V11    10.0   .     S
V5     V8    10.0   1_655     S
V5     V6    10.0   .     S
V5     V8    10.0   .     S
V6     V1    10.0   1_455     S
V6     V10    10.0   1_545     S
V6     V12    10.0   .     S
V6     V10    10.0   .     S
V7     V3    10.0   1_456     S
V7     V9    10.0   1_445     S
V7     V8    10.0   1_556     S
V7     V9    10.0   .     S
V7     V12    10.0   .     S
V7     V1    10.0   1_455     S
V8     V4    10.0   1_565     S
V8     V5    10.0   1_455     S
V8     V2    10.0   1_455     S
V8     V11    10.0   1_455     S
V8     V7    10.0   1_554     S
V9     V7    10.0   1_665     S
V9     V3    10.0   1_566     S
V9     V1    10.0   1_565     S
V9     V10    10.0   .     S
V9     V11    10.0   1_556     S
V10     V2    10.0   1_455     S
V10     V4    10.0   1_565     S
V10     V12    10.0   1_565     S
V10     V6    10.0   1_565     S
V11     V3    10.0   1_565     S
V11     V8    10.0   1_655     S
V11     V9    10.0   1_554     S
V11     V12    10.0   1_554     S
V12     V10    10.0   1_545     S
V12     V1    10.0   1_455     S
V12     V11    10.0   1_556     S
