data_wmh
_audit_creation_date              2020-02-02
_audit_creation_method            'Pymatgen'
_symmetry_space_group_name_H-M    'P1'
_symmetry_Int_Tables_number       1
loop_
_symmetry_equiv_pos_as_xyz
  x,y,z
_cell_length_a                    28.1584
_cell_length_b                    28.1584
_cell_length_c                    29.1295
_cell_angle_alpha                 90.0
_cell_angle_beta                 90.0
_cell_angle_gamma                 120.0
loop_
_atom_site_label
_atom_site_type_symbol
_atom_site_fract_x
_atom_site_fract_y
_atom_site_fract_z
V1     V     0.6913   0.0565   0.5488
V2     V     0.3087   0.9435   0.4512
V3     V     0.358   0.3898   0.8822
V4     V     0.9754   0.2769   0.7845
V5     V     0.0246   0.7231   0.2155
V6     V     0.642   0.6102   0.1178
V7     V     0.3652   0.3087   0.5488
V8     V     0.6348   0.6913   0.4512
V9     V     0.0318   0.642   0.8822
V10     V     0.3015   0.0246   0.7845
V11     V     0.6985   0.9754   0.2155
V12     V     0.9682   0.358   0.1178
V13     V     0.9435   0.6348   0.5488
V14     V     0.0565   0.3652   0.4512
V15     V     0.2769   0.3015   0.2155
V16     V     0.3898   0.0318   0.1178
V17     V     0.7231   0.6985   0.7845
V18     V     0.6102   0.9682   0.8822
loop_
_geom_bond_atom_site_label_1
_geom_bond_atom_site_label_2
_geom_bond_distance
_geom_bond_site_symmetry_2
_ccdc_geom_bond_type
V1     V2    10.0   1_545     S
V1     V8    10.0   1_545     S
V1     V11    10.0   1_545     S
V1     V14    10.0   1_655     S
V1     V18    10.0   1_545     S
V1     V4    10.0   .     S
V2     V1    10.0   1_565     S
V2     V7    10.0   1_565     S
V2     V10    10.0   1_565     S
V2     V16    10.0   1_565     S
V2     V13    10.0   1_455     S
V2     V5    10.0   .     S
V3     V10    10.0   .     S
V3     V7    10.0   .     S
V3     V4    10.0   1_455     S
V3     V17    10.0   .     S
V3     V15    10.0   1_556     S
V3     V6    10.0   1_556     S
V4     V3    10.0   1_655     S
V4     V9    10.0   1_655     S
V4     V12    10.0   1_556     S
V4     V14    10.0   1_655     S
V4     V18    10.0   1_545     S
V5     V12    10.0   1_455     S
V5     V9    10.0   1_554     S
V5     V6    10.0   1_455     S
V5     V16    10.0   1_565     S
V5     V13    10.0   1_455     S
V6     V5    10.0   1_655     S
V6     V11    10.0   .     S
V6     V8    10.0   .     S
V6     V17    10.0   1_554     S
V6     V15    10.0   .     S
V6     V3    10.0   1_554     S
V7     V2    10.0   1_545     S
V7     V10    10.0   .     S
V7     V8    10.0   .     S
V7     V14    10.0   .     S
V7     V15    10.0   .     S
V8     V1    10.0   1_565     S
V8     V11    10.0   .     S
V8     V13    10.0   .     S
V8     V17    10.0   .     S
V9     V4    10.0   1_455     S
V9     V5    10.0   1_556     S
V9     V12    10.0   1_456     S
V9     V17    10.0   1_455     S
V9     V13    10.0   1_455     S
V9     V10    10.0   1_565     S
V10     V2    10.0   1_545     S
V10     V9    10.0   1_545     S
V10     V18    10.0   1_545     S
V10     V16    10.0   1_556     S
V11     V1    10.0   1_565     S
V11     V12    10.0   1_565     S
V11     V16    10.0   1_565     S
V11     V18    10.0   1_554     S
V12     V4    10.0   1_554     S
V12     V5    10.0   1_655     S
V12     V9    10.0   1_654     S
V12     V15    10.0   1_655     S
V12     V14    10.0   1_655     S
V12     V11    10.0   1_545     S
V13     V9    10.0   1_655     S
V13     V17    10.0   .     S
V13     V14    10.0   1_655     S
V13     V2    10.0   1_655     S
V13     V5    10.0   1_655     S
V14     V12    10.0   1_455     S
V14     V15    10.0   .     S
V14     V13    10.0   1_455     S
V14     V1    10.0   1_455     S
V14     V4    10.0   1_455     S
V15     V12    10.0   1_455     S
V15     V3    10.0   1_554     S
V15     V16    10.0   .     S
V16     V10    10.0   1_554     S
V16     V11    10.0   1_545     S
V16     V18    10.0   1_544     S
V16     V5    10.0   1_545     S
V16     V2    10.0   1_545     S
V17     V9    10.0   1_655     S
V17     V6    10.0   1_556     S
V17     V18    10.0   .     S
V18     V10    10.0   1_565     S
V18     V11    10.0   1_556     S
V18     V16    10.0   1_566     S
V18     V4    10.0   1_565     S
V18     V1    10.0   1_565     S
