data_wmi
_audit_creation_date              2020-02-02
_audit_creation_method            'Pymatgen'
_symmetry_space_group_name_H-M    'P1'
_symmetry_Int_Tables_number       1
loop_
_symmetry_equiv_pos_as_xyz
  x,y,z
_cell_length_a                    19.8655
_cell_length_b                    19.8655
_cell_length_c                    56.6731
_cell_angle_alpha                 90.0
_cell_angle_beta                 90.0
_cell_angle_gamma                 120.0
loop_
_atom_site_label
_atom_site_type_symbol
_atom_site_fract_x
_atom_site_fract_y
_atom_site_fract_z
V1     V     0.867   0.2003   0.5784
V2     V     0.133   0.3333   0.4216
V3     V     0.2003   0.867   0.4216
V4     V     0.3333   0.133   0.5784
V5     V     0.6667   0.7997   0.4216
V6     V     0.7997   0.6667   0.5784
V7     V     0.0   0.4664   0.0882
V8     V     0.133   0.3333   0.2451
V9     V     0.6667   0.7997   0.2451
V10     V     0.5336   0.5336   0.0882
V11     V     0.4664   0.0   0.0882
V12     V     0.2003   0.867   0.2451
V13     V     0.7997   0.6667   0.7549
V14     V     0.5336   0.5336   0.9118
V15     V     0.3333   0.133   0.7549
V16     V     0.4664   0.0   0.9118
V17     V     0.0   0.4664   0.9118
V18     V     0.867   0.2003   0.7549
loop_
_geom_bond_atom_site_label_1
_geom_bond_atom_site_label_2
_geom_bond_distance
_geom_bond_site_symmetry_2
_ccdc_geom_bond_type
V1     V2    10.0   1_655     S
V1     V4    10.0   1_655     S
V1     V6    10.0   1_545     S
V1     V4    10.0   .     S
V1     V6    10.0   .     S
V1     V18    10.001   .     S
V2     V1    10.0   1_455     S
V2     V5    10.0   1_445     S
V2     V3    10.0   .     S
V2     V5    10.0   .     S
V2     V3    10.0   1_545     S
V2     V8    10.001   .     S
V3     V4    10.0   1_565     S
V3     V5    10.0   .     S
V3     V2    10.0   1_565     S
V3     V5    10.0   1_455     S
V3     V12    10.001   .     S
V4     V1    10.0   1_455     S
V4     V6    10.0   .     S
V4     V3    10.0   1_545     S
V4     V6    10.0   1_445     S
V4     V15    10.001   .     S
V5     V2    10.0   1_665     S
V5     V6    10.0   .     S
V5     V3    10.0   1_655     S
V5     V9    10.001   .     S
V6     V1    10.0   1_565     S
V6     V4    10.0   1_665     S
V6     V13    10.001   .     S
V7     V8    10.0   .     S
V7     V11    10.0   1_455     S
V7     V10    10.0   1_455     S
V7     V10    10.0   .     S
V7     V11    10.0   1_565     S
V7     V17    10.001   1_554     S
V8     V9    10.0   .     S
V8     V12    10.0   .     S
V8     V9    10.0   1_445     S
V8     V12    10.0   1_545     S
V9     V10    10.0   .     S
V9     V12    10.0   .     S
V9     V12    10.0   1_655     S
V9     V8    10.0   1_665     S
V10     V11    10.0   .     S
V10     V7    10.0   1_655     S
V10     V11    10.0   1_565     S
V10     V14    10.001   1_554     S
V11     V7    10.0   1_655     S
V11     V12    10.0   1_545     S
V11     V10    10.0   1_545     S
V11     V7    10.0   1_545     S
V11     V16    10.001   1_554     S
V12     V11    10.0   1_565     S
V12     V9    10.0   1_455     S
V12     V8    10.0   1_565     S
V13     V14    10.0   .     S
V13     V18    10.0   .     S
V13     V15    10.0   .     S
V13     V18    10.0   1_565     S
V13     V15    10.0   1_665     S
V14     V16    10.0   1_565     S
V14     V16    10.0   .     S
V14     V17    10.0   .     S
V14     V17    10.0   1_655     S
V14     V10    10.001   1_556     S
V15     V16    10.0   .     S
V15     V18    10.0   .     S
V15     V18    10.0   1_455     S
V15     V13    10.0   1_445     S
V16     V14    10.0   1_545     S
V16     V17    10.0   1_655     S
V16     V17    10.0   1_545     S
V16     V11    10.001   1_556     S
V17     V16    10.0   1_455     S
V17     V16    10.0   1_565     S
V17     V18    10.0   1_455     S
V17     V14    10.0   1_455     S
V17     V7    10.001   1_556     S
V18     V17    10.0   1_655     S
V18     V13    10.0   1_545     S
V18     V15    10.0   1_655     S
