data_wmt
_audit_creation_date              2020-02-02
_audit_creation_method            'Pymatgen'
_symmetry_space_group_name_H-M    'P1'
_symmetry_Int_Tables_number       1
loop_
_symmetry_equiv_pos_as_xyz
  x,y,z
_cell_length_a                    67.126
_cell_length_b                    67.126
_cell_length_c                    14.1419
_cell_angle_alpha                 90.0
_cell_angle_beta                 90.0
_cell_angle_gamma                 120.0
loop_
_atom_site_label
_atom_site_type_symbol
_atom_site_fract_x
_atom_site_fract_y
_atom_site_fract_z
V1     V     0.0608   0.4777   0.0
V2     V     0.1444   0.3942   0.8333
V3     V     0.0608   0.5831   0.5
V4     V     0.1444   0.7503   0.3333
V5     V     0.6058   0.7503   0.8333
V6     V     0.5223   0.5831   0.0
V7     V     0.5223   0.9392   0.5
V8     V     0.6058   0.8556   0.3333
V9     V     0.4169   0.9392   0.0
V10     V     0.2497   0.8556   0.8333
V11     V     0.2497   0.3942   0.3333
V12     V     0.4169   0.4777   0.5
V13     V     0.9164   0.1889   0.1667
V14     V     0.0836   0.2725   0.3333
V15     V     0.1889   0.2725   0.8333
V16     V     0.2725   0.1889   0.6667
V17     V     0.9164   0.7275   0.6667
V18     V     0.0836   0.8111   0.8333
V19     V     0.2725   0.0836   0.1667
V20     V     0.1889   0.9164   0.3333
V21     V     0.8111   0.7275   0.1667
V22     V     0.7275   0.8111   0.3333
V23     V     0.8111   0.0836   0.6667
V24     V     0.7275   0.9164   0.8333
V25     V     0.4777   0.0608   0.5
V26     V     0.3942   0.1444   0.6667
V27     V     0.4777   0.4169   0.0
V28     V     0.3942   0.2497   0.1667
V29     V     0.5831   0.5223   0.5
V30     V     0.7503   0.6058   0.6667
V31     V     0.8556   0.6058   0.1667
V32     V     0.9392   0.5223   0.0
V33     V     0.8556   0.2497   0.6667
V34     V     0.9392   0.4169   0.5
V35     V     0.5831   0.0608   0.0
V36     V     0.7503   0.1444   0.1667
loop_
_geom_bond_atom_site_label_1
_geom_bond_atom_site_label_2
_geom_bond_distance
_geom_bond_site_symmetry_2
_ccdc_geom_bond_type
V1     V34    10.0   1_454     S
V1     V32    10.0   1_455     S
V1     V34    10.0   1_455     S
V1     V2    10.0   1_554     S
V1     V3    10.0   1_554     S
V1     V3    10.0   .     S
V2     V15    10.0   .     S
V2     V14    10.0   1_556     S
V2     V14    10.0   .     S
V2     V1    10.0   1_556     S
V2     V11    10.0   1_556     S
V2     V11    10.0   .     S
V3     V34    10.0   1_455     S
V3     V32    10.0   1_455     S
V3     V32    10.0   1_456     S
V3     V4    10.0   .     S
V3     V1    10.0   1_556     S
V4     V10    10.0   1_554     S
V4     V10    10.0   .     S
V4     V18    10.0   1_554     S
V4     V20    10.0   .     S
V4     V18    10.0   .     S
V5     V22    10.0   1_556     S
V5     V24    10.0   .     S
V5     V22    10.0   .     S
V5     V6    10.0   1_556     S
V5     V8    10.0   1_556     S
V5     V8    10.0   .     S
V6     V27    10.0   .     S
V6     V29    10.0   1_554     S
V6     V29    10.0   .     S
V6     V5    10.0   1_554     S
V6     V12    10.0   .     S
V6     V12    10.0   1_554     S
V7     V35    10.0   1_565     S
V7     V35    10.0   1_566     S
V7     V25    10.0   1_565     S
V7     V8    10.0   .     S
V7     V9    10.0   1_556     S
V7     V9    10.0   .     S
V8     V22    10.0   .     S
V8     V24    10.0   1_554     S
V8     V24    10.0   .     S
V8     V5    10.0   1_554     S
V9     V35    10.0   1_565     S
V9     V25    10.0   1_564     S
V9     V25    10.0   1_565     S
V9     V7    10.0   1_554     S
V9     V10    10.0   1_554     S
V10     V9    10.0   1_556     S
V10     V4    10.0   1_556     S
V10     V18    10.0   .     S
V10     V20    10.0   1_556     S
V10     V20    10.0   .     S
V11     V15    10.0   .     S
V11     V14    10.0   .     S
V11     V15    10.0   1_554     S
V11     V2    10.0   1_554     S
V11     V12    10.0   .     S
V12     V27    10.0   .     S
V12     V27    10.0   1_556     S
V12     V29    10.0   .     S
V12     V6    10.0   1_556     S
V13     V14    10.0   1_655     S
V13     V23    10.0   .     S
V13     V23    10.0   1_554     S
V13     V36    10.0   .     S
V13     V33    10.0   .     S
V13     V33    10.0   1_554     S
V14     V2    10.0   1_554     S
V14     V13    10.0   1_455     S
V14     V15    10.0   .     S
V14     V15    10.0   1_554     S
V15     V11    10.0   1_556     S
V15     V16    10.0   .     S
V15     V14    10.0   1_556     S
V16     V28    10.0   .     S
V16     V26    10.0   .     S
V16     V28    10.0   1_556     S
V16     V19    10.0   .     S
V16     V19    10.0   1_556     S
V17     V30    10.0   .     S
V17     V31    10.0   .     S
V17     V31    10.0   1_556     S
V17     V18    10.0   1_655     S
V17     V21    10.0   .     S
V17     V21    10.0   1_556     S
V18     V4    10.0   1_556     S
V18     V17    10.0   1_455     S
V18     V20    10.0   1_556     S
V18     V20    10.0   .     S
V19     V28    10.0   .     S
V19     V26    10.0   .     S
V19     V26    10.0   1_554     S
V19     V20    10.0   1_545     S
V19     V16    10.0   1_554     S
V20     V10    10.0   1_554     S
V20     V18    10.0   1_554     S
V20     V19    10.0   1_565     S
V21     V30    10.0   .     S
V21     V31    10.0   .     S
V21     V30    10.0   1_554     S
V21     V22    10.0   .     S
V21     V17    10.0   1_554     S
V22     V5    10.0   1_554     S
V22     V24    10.0   .     S
V22     V24    10.0   1_554     S
V23     V24    10.0   1_545     S
V23     V13    10.0   1_556     S
V23     V36    10.0   .     S
V23     V33    10.0   .     S
V23     V36    10.0   1_556     S
V24     V8    10.0   1_556     S
V24     V22    10.0   1_556     S
V24     V23    10.0   1_565     S
V25     V7    10.0   1_545     S
V25     V9    10.0   1_546     S
V25     V9    10.0   1_545     S
V25     V26    10.0   .     S
V25     V35    10.0   1_556     S
V25     V35    10.0   .     S
V26     V19    10.0   1_556     S
V26     V28    10.0   .     S
V26     V28    10.0   1_556     S
V27     V12    10.0   1_554     S
V27     V28    10.0   .     S
V27     V29    10.0   1_554     S
V27     V29    10.0   .     S
V28     V16    10.0   1_554     S
V28     V26    10.0   1_554     S
V29     V6    10.0   1_556     S
V29     V27    10.0   1_556     S
V29     V30    10.0   .     S
V30     V21    10.0   1_556     S
V30     V31    10.0   .     S
V30     V31    10.0   1_556     S
V31     V17    10.0   1_554     S
V31     V32    10.0   .     S
V31     V30    10.0   1_554     S
V32     V1    10.0   1_655     S
V32     V3    10.0   1_655     S
V32     V3    10.0   1_654     S
V32     V34    10.0   .     S
V32     V34    10.0   1_554     S
V33     V13    10.0   1_556     S
V33     V34    10.0   .     S
V33     V36    10.0   .     S
V33     V36    10.0   1_556     S
V34     V1    10.0   1_656     S
V34     V1    10.0   1_655     S
V34     V3    10.0   1_655     S
V34     V32    10.0   1_556     S
V35     V7    10.0   1_545     S
V35     V9    10.0   1_545     S
V35     V7    10.0   1_544     S
V35     V25    10.0   1_554     S
V35     V36    10.0   .     S
V36     V23    10.0   1_554     S
V36     V33    10.0   1_554     S
