data_wmy
_audit_creation_date              2020-02-02
_audit_creation_method            'Pymatgen'
_symmetry_space_group_name_H-M    'P1'
_symmetry_Int_Tables_number       1
loop_
_symmetry_equiv_pos_as_xyz
  x,y,z
_cell_length_a                    36.3683
_cell_length_b                    36.3683
_cell_length_c                    35.1001
_cell_angle_alpha                 90.0
_cell_angle_beta                 90.0
_cell_angle_gamma                 120.0
loop_
_atom_site_label
_atom_site_type_symbol
_atom_site_fract_x
_atom_site_fract_y
_atom_site_fract_z
V1     V     0.6119   0.1544   0.217
V2     V     0.7907   0.2785   0.4496
V3     V     0.7215   0.5122   0.4496
V4     V     0.5426   0.3881   0.217
V5     V     0.4878   0.2093   0.4496
V6     V     0.8456   0.4574   0.217
V7     V     0.4878   0.2785   0.9496
V8     V     0.6119   0.4574   0.717
V9     V     0.5426   0.1544   0.717
V10     V     0.7215   0.2093   0.9496
V11     V     0.8456   0.3881   0.717
V12     V     0.7907   0.5122   0.9496
V13     V     0.2785   0.4878   0.5504
V14     V     0.1544   0.5426   0.783
V15     V     0.3881   0.8456   0.783
V16     V     0.2093   0.7215   0.5504
V17     V     0.4574   0.6119   0.783
V18     V     0.5122   0.7907   0.5504
V19     V     0.2785   0.7907   0.0504
V20     V     0.4574   0.8456   0.283
V21     V     0.1544   0.6119   0.283
V22     V     0.2093   0.4878   0.0504
V23     V     0.5122   0.7215   0.0504
V24     V     0.3881   0.5426   0.283
V25     V     0.9452   0.1241   0.3837
V26     V     0.1241   0.1789   0.6163
V27     V     0.1789   0.0548   0.3837
V28     V     0.8211   0.9452   0.6163
V29     V     0.8759   0.8211   0.3837
V30     V     0.0548   0.8759   0.6163
V31     V     0.9452   0.8211   0.8837
V32     V     0.1241   0.9452   0.1163
V33     V     0.1789   0.1241   0.8837
V34     V     0.8759   0.0548   0.8837
V35     V     0.0548   0.1789   0.1163
V36     V     0.8211   0.8759   0.1163
loop_
_geom_bond_atom_site_label_1
_geom_bond_atom_site_label_2
_geom_bond_distance
_geom_bond_site_symmetry_2
_ccdc_geom_bond_type
V1     V20    10.0   1_545     S
V1     V6    10.0   .     S
V1     V5    10.0   .     S
V1     V2    10.0   .     S
V1     V4    10.0   .     S
V1     V10    10.0   1_554     S
V2     V25    10.0   .     S
V2     V3    10.0   .     S
V2     V5    10.0   .     S
V2     V6    10.0   .     S
V2     V11    10.0   .     S
V3     V5    10.0   .     S
V3     V4    10.0   .     S
V3     V6    10.0   .     S
V3     V8    10.0   .     S
V3     V29    10.0   .     S
V4     V24    10.0   .     S
V4     V5    10.0   .     S
V4     V6    10.0   .     S
V4     V7    10.0   1_554     S
V5     V27    10.0   .     S
V5     V9    10.0   .     S
V6     V21    10.0   1_655     S
V6     V12    10.0   1_554     S
V7     V33    10.0   .     S
V7     V12    10.0   .     S
V7     V10    10.0   .     S
V7     V8    10.0   .     S
V7     V9    10.0   .     S
V7     V4    10.0   1_556     S
V8     V17    10.0   .     S
V8     V11    10.0   .     S
V8     V12    10.0   .     S
V8     V9    10.0   .     S
V9     V15    10.0   1_545     S
V9     V10    10.0   .     S
V9     V11    10.0   .     S
V10     V34    10.0   .     S
V10     V11    10.0   .     S
V10     V12    10.0   .     S
V10     V1    10.0   1_556     S
V11     V14    10.0   1_655     S
V11     V12    10.0   .     S
V12     V31    10.0   .     S
V12     V6    10.0   1_556     S
V13     V26    10.0   .     S
V13     V18    10.0   .     S
V13     V14    10.0   .     S
V13     V17    10.0   .     S
V13     V16    10.0   .     S
V13     V24    10.0   .     S
V14     V11    10.0   1_455     S
V14     V17    10.0   .     S
V14     V15    10.0   .     S
V14     V16    10.0   .     S
V14     V22    10.0   1_556     S
V15     V9    10.0   1_565     S
V15     V16    10.0   .     S
V15     V17    10.0   .     S
V15     V18    10.0   .     S
V15     V19    10.0   1_556     S
V16     V30    10.0   .     S
V16     V18    10.0   .     S
V16     V21    10.0   .     S
V17     V18    10.0   .     S
V17     V23    10.0   1_556     S
V18     V28    10.0   .     S
V18     V20    10.0   .     S
V19     V23    10.0   .     S
V19     V20    10.0   .     S
V19     V21    10.0   .     S
V19     V22    10.0   .     S
V19     V15    10.0   1_554     S
V19     V32    10.0   .     S
V20     V1    10.0   1_565     S
V20     V24    10.0   .     S
V20     V23    10.0   .     S
V20     V21    10.0   .     S
V21     V6    10.0   1_455     S
V21     V22    10.0   .     S
V21     V24    10.0   .     S
V22     V35    10.0   .     S
V22     V23    10.0   .     S
V22     V24    10.0   .     S
V22     V14    10.0   1_554     S
V23     V36    10.0   .     S
V23     V24    10.0   .     S
V23     V17    10.0   1_554     S
V25     V27    10.0   1_655     S
V25     V29    10.0   1_545     S
V25     V26    10.0   1_655     S
V25     V28    10.0   1_545     S
V25     V35    10.0   1_655     S
V26     V30    10.0   1_545     S
V26     V28    10.0   1_445     S
V26     V27    10.0   .     S
V26     V25    10.0   1_455     S
V26     V33    10.0   .     S
V27     V25    10.0   1_455     S
V27     V29    10.0   1_445     S
V27     V30    10.0   1_545     S
V27     V32    10.0   1_545     S
V28     V26    10.0   1_665     S
V28     V30    10.0   1_655     S
V28     V29    10.0   .     S
V28     V25    10.0   1_565     S
V28     V34    10.0   1_565     S
V29     V27    10.0   1_665     S
V29     V25    10.0   1_565     S
V29     V30    10.0   1_655     S
V29     V36    10.0   .     S
V30     V26    10.0   1_565     S
V30     V27    10.0   1_565     S
V30     V28    10.0   1_455     S
V30     V29    10.0   1_455     S
V30     V31    10.0   1_455     S
V31     V33    10.0   1_665     S
V31     V32    10.0   1_656     S
V31     V34    10.0   1_565     S
V31     V36    10.0   1_556     S
V31     V30    10.0   1_655     S
V32     V35    10.0   1_565     S
V32     V31    10.0   1_454     S
V32     V33    10.0   1_564     S
V32     V36    10.0   1_455     S
V32     V27    10.0   1_565     S
V33     V31    10.0   1_445     S
V33     V34    10.0   1_455     S
V33     V35    10.0   1_556     S
V33     V32    10.0   1_546     S
V34     V33    10.0   1_655     S
V34     V31    10.0   1_545     S
V34     V35    10.0   1_656     S
V34     V36    10.0   1_546     S
V34     V28    10.0   1_545     S
V35     V32    10.0   1_545     S
V35     V36    10.0   1_445     S
V35     V33    10.0   1_554     S
V35     V34    10.0   1_454     S
V35     V25    10.0   1_455     S
V36     V35    10.0   1_665     S
V36     V32    10.0   1_655     S
V36     V34    10.0   1_564     S
V36     V31    10.0   1_554     S
