data_wse
_audit_creation_date              2020-02-02
_audit_creation_method            'Pymatgen'
_symmetry_space_group_name_H-M    'P1'
_symmetry_Int_Tables_number       1
loop_
_symmetry_equiv_pos_as_xyz
  x,y,z
_cell_length_a                    68.2842
_cell_length_b                    68.2842
_cell_length_c                    68.2842
_cell_angle_alpha                 90.0
_cell_angle_beta                 90.0
_cell_angle_gamma                 90.0
loop_
_atom_site_label
_atom_site_type_symbol
_atom_site_fract_x
_atom_site_fract_y
_atom_site_fract_z
V1     V     0.4268   0.9268   0.6768
V2     V     0.4268   0.0732   0.6768
V3     V     0.5732   0.9268   0.6768
V4     V     0.5732   0.0732   0.6768
V5     V     0.5732   0.9268   0.8232
V6     V     0.5732   0.0732   0.8232
V7     V     0.4268   0.9268   0.8232
V8     V     0.4268   0.0732   0.8232
V9     V     0.4268   0.8232   0.9268
V10     V     0.4268   0.8232   0.0732
V11     V     0.5732   0.8232   0.9268
V12     V     0.5732   0.8232   0.0732
V13     V     0.5732   0.6768   0.9268
V14     V     0.5732   0.6768   0.0732
V15     V     0.4268   0.6768   0.0732
V16     V     0.4268   0.6768   0.9268
V17     V     0.9268   0.4268   0.8232
V18     V     0.0732   0.4268   0.8232
V19     V     0.9268   0.5732   0.8232
V20     V     0.0732   0.5732   0.8232
V21     V     0.9268   0.5732   0.6768
V22     V     0.0732   0.5732   0.6768
V23     V     0.0732   0.4268   0.6768
V24     V     0.9268   0.4268   0.6768
V25     V     0.6768   0.4268   0.9268
V26     V     0.6768   0.4268   0.0732
V27     V     0.6768   0.5732   0.9268
V28     V     0.6768   0.5732   0.0732
V29     V     0.8232   0.5732   0.9268
V30     V     0.8232   0.5732   0.0732
V31     V     0.8232   0.4268   0.9268
V32     V     0.8232   0.4268   0.0732
V33     V     0.1768   0.5732   0.9268
V34     V     0.1768   0.5732   0.0732
V35     V     0.3232   0.5732   0.9268
V36     V     0.3232   0.5732   0.0732
V37     V     0.1768   0.4268   0.9268
V38     V     0.1768   0.4268   0.0732
V39     V     0.3232   0.4268   0.9268
V40     V     0.3232   0.4268   0.0732
V41     V     0.5732   0.1768   0.9268
V42     V     0.5732   0.1768   0.0732
V43     V     0.5732   0.3232   0.9268
V44     V     0.5732   0.3232   0.0732
V45     V     0.4268   0.3232   0.9268
V46     V     0.4268   0.3232   0.0732
V47     V     0.4268   0.1768   0.9268
V48     V     0.4268   0.1768   0.0732
V49     V     0.5732   0.9268   0.1768
V50     V     0.5732   0.0732   0.1768
V51     V     0.5732   0.9268   0.3232
V52     V     0.5732   0.0732   0.3232
V53     V     0.4268   0.9268   0.1768
V54     V     0.4268   0.0732   0.1768
V55     V     0.4268   0.9268   0.3232
V56     V     0.4268   0.0732   0.3232
V57     V     0.1768   0.9268   0.5732
V58     V     0.1768   0.0732   0.5732
V59     V     0.3232   0.9268   0.5732
V60     V     0.3232   0.0732   0.5732
V61     V     0.3232   0.9268   0.4268
V62     V     0.3232   0.0732   0.4268
V63     V     0.1768   0.9268   0.4268
V64     V     0.1768   0.0732   0.4268
V65     V     0.9268   0.5732   0.1768
V66     V     0.0732   0.5732   0.1768
V67     V     0.9268   0.5732   0.3232
V68     V     0.0732   0.5732   0.3232
V69     V     0.9268   0.4268   0.1768
V70     V     0.0732   0.4268   0.1768
V71     V     0.9268   0.4268   0.3232
V72     V     0.0732   0.4268   0.3232
V73     V     0.9268   0.1768   0.5732
V74     V     0.0732   0.1768   0.5732
V75     V     0.0732   0.3232   0.5732
V76     V     0.9268   0.3232   0.5732
V77     V     0.9268   0.3232   0.4268
V78     V     0.0732   0.3232   0.4268
V79     V     0.9268   0.1768   0.4268
V80     V     0.0732   0.1768   0.4268
V81     V     0.9268   0.6768   0.4268
V82     V     0.0732   0.6768   0.4268
V83     V     0.9268   0.6768   0.5732
V84     V     0.0732   0.6768   0.5732
V85     V     0.9268   0.8232   0.5732
V86     V     0.0732   0.8232   0.5732
V87     V     0.9268   0.8232   0.4268
V88     V     0.0732   0.8232   0.4268
V89     V     0.6768   0.0732   0.4268
V90     V     0.6768   0.9268   0.4268
V91     V     0.6768   0.9268   0.5732
V92     V     0.6768   0.0732   0.5732
V93     V     0.8232   0.9268   0.5732
V94     V     0.8232   0.0732   0.5732
V95     V     0.8232   0.9268   0.4268
V96     V     0.8232   0.0732   0.4268
loop_
_geom_bond_atom_site_label_1
_geom_bond_atom_site_label_2
_geom_bond_distance
_geom_bond_site_symmetry_2
_ccdc_geom_bond_type
V1     V7    10.0   .     S
V1     V2    10.0   1_565     S
V1     V3    10.0   .     S
V1     V59    10.001   .     S
V2     V1    10.0   1_545     S
V2     V8    10.0   .     S
V2     V4    10.0   .     S
V2     V60    10.001   .     S
V3     V5    10.0   .     S
V3     V4    10.0   1_565     S
V3     V91    10.001   .     S
V4     V3    10.0   1_545     S
V4     V6    10.0   .     S
V4     V92    10.001   .     S
V5     V6    10.0   1_565     S
V5     V7    10.0   .     S
V5     V11    10.001   .     S
V6     V5    10.0   1_545     S
V6     V8    10.0   .     S
V6     V41    10.001   .     S
V7     V8    10.0   1_565     S
V7     V9    10.001   .     S
V8     V7    10.0   1_545     S
V8     V47    10.001   .     S
V9     V10    10.0   1_556     S
V9     V11    10.0   .     S
V9     V16    10.0   .     S
V10     V9    10.0   1_554     S
V10     V12    10.0   .     S
V10     V15    10.0   .     S
V10     V53    10.001   .     S
V11     V12    10.0   1_556     S
V11     V13    10.0   .     S
V12     V11    10.0   1_554     S
V12     V14    10.0   .     S
V12     V49    10.001   .     S
V13     V16    10.0   .     S
V13     V14    10.0   1_556     S
V13     V27    10.001   .     S
V14     V13    10.0   1_554     S
V14     V15    10.0   .     S
V14     V28    10.001   .     S
V15     V16    10.0   1_554     S
V15     V36    10.001   .     S
V16     V15    10.0   1_556     S
V16     V35    10.001   .     S
V17     V18    10.0   1_655     S
V17     V19    10.0   .     S
V17     V24    10.0   .     S
V17     V31    10.001   .     S
V18     V17    10.0   1_455     S
V18     V20    10.0   .     S
V18     V23    10.0   .     S
V18     V37    10.001   .     S
V19     V20    10.0   1_655     S
V19     V21    10.0   .     S
V19     V29    10.001   .     S
V20     V19    10.0   1_455     S
V20     V22    10.0   .     S
V20     V33    10.001   .     S
V21     V24    10.0   .     S
V21     V22    10.0   1_655     S
V21     V83    10.001   .     S
V22     V21    10.0   1_455     S
V22     V23    10.0   .     S
V22     V84    10.001   .     S
V23     V24    10.0   1_455     S
V23     V75    10.001   .     S
V24     V23    10.0   1_655     S
V24     V76    10.001   .     S
V25     V31    10.0   .     S
V25     V26    10.0   1_556     S
V25     V27    10.0   .     S
V25     V43    10.001   .     S
V26     V25    10.0   1_554     S
V26     V32    10.0   .     S
V26     V28    10.0   .     S
V26     V44    10.001   .     S
V27     V29    10.0   .     S
V27     V28    10.0   1_556     S
V28     V27    10.0   1_554     S
V28     V30    10.0   .     S
V29     V30    10.0   1_556     S
V29     V31    10.0   .     S
V30     V29    10.0   1_554     S
V30     V32    10.0   .     S
V30     V65    10.001   .     S
V31     V32    10.0   1_556     S
V32     V31    10.0   1_554     S
V32     V69    10.001   .     S
V33     V34    10.0   1_556     S
V33     V35    10.0   .     S
V33     V37    10.0   .     S
V34     V33    10.0   1_554     S
V34     V36    10.0   .     S
V34     V38    10.0   .     S
V34     V66    10.001   .     S
V35     V39    10.0   .     S
V35     V36    10.0   1_556     S
V36     V35    10.0   1_554     S
V36     V40    10.0   .     S
V37     V38    10.0   1_556     S
V37     V39    10.0   .     S
V38     V37    10.0   1_554     S
V38     V40    10.0   .     S
V38     V70    10.001   .     S
V39     V40    10.0   1_556     S
V39     V45    10.001   .     S
V40     V39    10.0   1_554     S
V40     V46    10.001   .     S
V41     V42    10.0   1_556     S
V41     V43    10.0   .     S
V41     V47    10.0   .     S
V42     V41    10.0   1_554     S
V42     V44    10.0   .     S
V42     V48    10.0   .     S
V42     V50    10.001   .     S
V43     V45    10.0   .     S
V43     V44    10.0   1_556     S
V44     V43    10.0   1_554     S
V44     V46    10.0   .     S
V45     V46    10.0   1_556     S
V45     V47    10.0   .     S
V46     V45    10.0   1_554     S
V46     V48    10.0   .     S
V47     V48    10.0   1_556     S
V48     V47    10.0   1_554     S
V48     V54    10.001   .     S
V49     V50    10.0   1_565     S
V49     V51    10.0   .     S
V49     V53    10.0   .     S
V50     V49    10.0   1_545     S
V50     V52    10.0   .     S
V50     V54    10.0   .     S
V51     V55    10.0   .     S
V51     V52    10.0   1_565     S
V51     V90    10.001   .     S
V52     V51    10.0   1_545     S
V52     V56    10.0   .     S
V52     V89    10.001   .     S
V53     V54    10.0   1_565     S
V53     V55    10.0   .     S
V54     V53    10.0   1_545     S
V54     V56    10.0   .     S
V55     V56    10.0   1_565     S
V55     V61    10.001   .     S
V56     V55    10.0   1_545     S
V56     V62    10.001   .     S
V57     V58    10.0   1_565     S
V57     V59    10.0   .     S
V57     V63    10.0   .     S
V57     V86    10.001   .     S
V58     V57    10.0   1_545     S
V58     V60    10.0   .     S
V58     V64    10.0   .     S
V58     V74    10.001   .     S
V59     V61    10.0   .     S
V59     V60    10.0   1_565     S
V60     V59    10.0   1_545     S
V60     V62    10.0   .     S
V61     V62    10.0   1_565     S
V61     V63    10.0   .     S
V62     V61    10.0   1_545     S
V62     V64    10.0   .     S
V63     V64    10.0   1_565     S
V63     V88    10.001   .     S
V64     V63    10.0   1_545     S
V64     V80    10.001   .     S
V65     V66    10.0   1_655     S
V65     V67    10.0   .     S
V65     V69    10.0   .     S
V66     V65    10.0   1_455     S
V66     V68    10.0   .     S
V66     V70    10.0   .     S
V67     V71    10.0   .     S
V67     V68    10.0   1_655     S
V67     V81    10.001   .     S
V68     V67    10.0   1_455     S
V68     V72    10.0   .     S
V68     V82    10.001   .     S
V69     V70    10.0   1_655     S
V69     V71    10.0   .     S
V70     V69    10.0   1_455     S
V70     V72    10.0   .     S
V71     V72    10.0   1_655     S
V71     V77    10.001   .     S
V72     V71    10.0   1_455     S
V72     V78    10.001   .     S
V73     V74    10.0   1_655     S
V73     V76    10.0   .     S
V73     V79    10.0   .     S
V73     V94    10.001   .     S
V74     V73    10.0   1_455     S
V74     V75    10.0   .     S
V74     V80    10.0   .     S
V75     V78    10.0   .     S
V75     V76    10.0   1_455     S
V76     V75    10.0   1_655     S
V76     V77    10.0   .     S
V77     V78    10.0   1_655     S
V77     V79    10.0   .     S
V78     V77    10.0   1_455     S
V78     V80    10.0   .     S
V79     V80    10.0   1_655     S
V79     V96    10.001   .     S
V80     V79    10.0   1_455     S
V81     V87    10.0   .     S
V81     V82    10.0   1_655     S
V81     V83    10.0   .     S
V82     V81    10.0   1_455     S
V82     V88    10.0   .     S
V82     V84    10.0   .     S
V83     V85    10.0   .     S
V83     V84    10.0   1_655     S
V84     V83    10.0   1_455     S
V84     V86    10.0   .     S
V85     V86    10.0   1_655     S
V85     V87    10.0   .     S
V85     V93    10.001   .     S
V86     V85    10.0   1_455     S
V86     V88    10.0   .     S
V87     V88    10.0   1_655     S
V87     V95    10.001   .     S
V88     V87    10.0   1_455     S
V89     V96    10.0   .     S
V89     V90    10.0   1_545     S
V89     V92    10.0   .     S
V90     V89    10.0   1_565     S
V90     V95    10.0   .     S
V90     V91    10.0   .     S
V91     V93    10.0   .     S
V91     V92    10.0   1_565     S
V92     V91    10.0   1_545     S
V92     V94    10.0   .     S
V93     V94    10.0   1_565     S
V93     V95    10.0   .     S
V94     V93    10.0   1_545     S
V94     V96    10.0   .     S
V95     V96    10.0   1_565     S
V96     V95    10.0   1_545     S
