data_xac
_audit_creation_date              2020-02-02
_audit_creation_method            'Pymatgen'
_symmetry_space_group_name_H-M    'P1'
_symmetry_Int_Tables_number       1
loop_
_symmetry_equiv_pos_as_xyz
  x,y,z
_cell_length_a                    24.0309
_cell_length_b                    24.0309
_cell_length_c                    24.0309
_cell_angle_alpha                 90.0
_cell_angle_beta                 90.0
_cell_angle_gamma                 90.0
loop_
_atom_site_label
_atom_site_type_symbol
_atom_site_fract_x
_atom_site_fract_y
_atom_site_fract_z
V1     V     0.8799   0.8799   0.6201
V2     V     0.6201   0.6201   0.6201
V3     V     0.8799   0.6201   0.8799
V4     V     0.6201   0.8799   0.8799
V5     V     0.1201   0.1201   0.3799
V6     V     0.1201   0.3799   0.1201
V7     V     0.3799   0.1201   0.1201
V8     V     0.3799   0.3799   0.3799
Er9     Er     0.0   0.0   0.0
Er10     Er     0.0   0.5   0.5
Er11     Er     0.5   0.5   0.0
Er12     Er     0.5   0.0   0.5
loop_
_geom_bond_atom_site_label_1
_geom_bond_atom_site_label_2
_geom_bond_distance
_geom_bond_site_symmetry_2
_ccdc_geom_bond_type
V1     Er12    10.0   1_565     S
V1     Er9    10.0   1_666     S
V1     Er10    10.0   1_655     S
V1     V5    10.0   1_665     S
V2     Er12    10.0   1_565     S
V2     Er11    10.0   1_556     S
V2     Er10    10.0   1_655     S
V2     V8    10.0   .     S
V3     Er9    10.0   1_666     S
V3     Er11    10.0   1_556     S
V3     Er10    10.0   1_655     S
V3     V6    10.0   1_656     S
V4     Er12    10.0   1_565     S
V4     Er9    10.0   1_666     S
V4     Er11    10.0   1_556     S
V4     V7    10.0   1_566     S
V5     Er9    10.0   .     S
V5     Er12    10.0   .     S
V5     Er10    10.0   .     S
V5     V1    10.0   1_445     S
V6     Er9    10.0   .     S
V6     Er11    10.0   .     S
V6     Er10    10.0   .     S
V6     V3    10.0   1_454     S
V7     Er9    10.0   .     S
V7     Er12    10.0   .     S
V7     Er11    10.0   .     S
V7     V4    10.0   1_544     S
V8     Er12    10.0   .     S
V8     Er11    10.0   .     S
V8     Er10    10.0   .     S
Er9     V1    10.0   1_444     S
Er9     V3    10.0   1_444     S
Er9     V4    10.0   1_444     S
Er10     V3    10.0   1_455     S
Er10     V1    10.0   1_455     S
Er10     V2    10.0   1_455     S
Er11     V4    10.0   1_554     S
Er11     V3    10.0   1_554     S
Er11     V2    10.0   1_554     S
Er12     V4    10.0   1_545     S
Er12     V1    10.0   1_545     S
Er12     V2    10.0   1_545     S
