data_xae
_audit_creation_date              2020-02-02
_audit_creation_method            'Pymatgen'
_symmetry_space_group_name_H-M    'P1'
_symmetry_Int_Tables_number       1
loop_
_symmetry_equiv_pos_as_xyz
  x,y,z
_cell_length_a                    28.2843
_cell_length_b                    28.2843
_cell_length_c                    28.2843
_cell_angle_alpha                 90.0
_cell_angle_beta                 90.0
_cell_angle_gamma                 90.0
loop_
_atom_site_label
_atom_site_type_symbol
_atom_site_fract_x
_atom_site_fract_y
_atom_site_fract_z
V1     V     0.0   0.0   0.5
Er2     Er     0.25   0.25   0.5
Er3     Er     0.75   0.25   0.5
Er4     Er     0.75   0.75   0.5
Er5     Er     0.25   0.75   0.5
Er6     Er     0.25   0.5   0.25
V7     V     0.0   0.5   0.0
Er8     Er     0.75   0.5   0.25
Er9     Er     0.25   0.5   0.75
Er10     Er     0.75   0.5   0.75
Er11     Er     0.5   0.25   0.25
V12     V     0.5   0.0   0.0
Er13     Er     0.5   0.75   0.25
Er14     Er     0.5   0.75   0.75
Er15     Er     0.5   0.25   0.75
loop_
_geom_bond_atom_site_label_1
_geom_bond_atom_site_label_2
_geom_bond_distance
_geom_bond_site_symmetry_2
_ccdc_geom_bond_type
V1     Er2    10.0   .     S
V1     Er3    10.0   1_455     S
V1     Er4    10.0   1_445     S
V1     Er5    10.0   1_545     S
Er2     Er6    10.0   .     S
Er2     Er15    10.0   .     S
Er2     Er11    10.0   .     S
Er2     Er9    10.0   .     S
Er3     V1    10.0   1_655     S
Er3     Er11    10.0   .     S
Er3     Er10    10.0   .     S
Er3     Er8    10.0   .     S
Er3     Er15    10.0   .     S
Er4     V1    10.0   1_665     S
Er4     Er8    10.0   .     S
Er4     Er14    10.0   .     S
Er4     Er13    10.0   .     S
Er4     Er10    10.0   .     S
Er5     V1    10.0   1_565     S
Er5     Er13    10.0   .     S
Er5     Er9    10.0   .     S
Er5     Er6    10.0   .     S
Er5     Er14    10.0   .     S
Er6     V7    10.0   .     S
Er6     Er11    10.0   .     S
Er6     Er13    10.0   .     S
V7     Er8    10.0   1_455     S
V7     Er9    10.0   1_554     S
V7     Er10    10.0   1_454     S
Er8     V7    10.0   1_655     S
Er8     Er13    10.0   .     S
Er8     Er11    10.0   .     S
Er9     V7    10.0   1_556     S
Er9     Er14    10.0   .     S
Er9     Er15    10.0   .     S
Er10     V7    10.0   1_656     S
Er10     Er15    10.0   .     S
Er10     Er14    10.0   .     S
Er11     V12    10.0   .     S
V12     Er13    10.0   1_545     S
V12     Er14    10.0   1_544     S
V12     Er15    10.0   1_554     S
Er13     V12    10.0   1_565     S
Er14     V12    10.0   1_566     S
Er15     V12    10.0   1_556     S
