data_xav
_audit_creation_date              2020-02-02
_audit_creation_method            'Pymatgen'
_symmetry_space_group_name_H-M    'P1'
_symmetry_Int_Tables_number       1
loop_
_symmetry_equiv_pos_as_xyz
  x,y,z
_cell_length_a                    24.1421
_cell_length_b                    24.1421
_cell_length_c                    24.1421
_cell_angle_alpha                 90.0
_cell_angle_beta                 90.0
_cell_angle_gamma                 90.0
loop_
_atom_site_label
_atom_site_type_symbol
_atom_site_fract_x
_atom_site_fract_y
_atom_site_fract_z
V1     V     0.0   0.2929   0.0
V2     V     0.0   0.7071   0.0
V3     V     0.2929   0.0   0.0
V4     V     0.7071   0.0   0.0
V5     V     0.0   0.0   0.2929
V6     V     0.0   0.0   0.7071
Er7     Er     0.7071   0.7071   0.7071
Er8     Er     0.7071   0.2929   0.7071
Er9     Er     0.2929   0.2929   0.7071
Er10     Er     0.2929   0.7071   0.7071
Er11     Er     0.2929   0.7071   0.2929
Er12     Er     0.7071   0.7071   0.2929
Er13     Er     0.2929   0.2929   0.2929
Er14     Er     0.7071   0.2929   0.2929
loop_
_geom_bond_atom_site_label_1
_geom_bond_atom_site_label_2
_geom_bond_distance
_geom_bond_site_symmetry_2
_ccdc_geom_bond_type
V1     V2    10.0   .     S
V1     Er8    10.0   1_454     S
V1     Er9    10.0   1_554     S
V1     Er13    10.0   .     S
V1     Er14    10.0   1_455     S
V2     Er7    10.0   1_454     S
V2     Er10    10.0   1_554     S
V2     Er11    10.0   .     S
V2     Er12    10.0   1_455     S
V3     V4    10.0   .     S
V3     Er9    10.0   1_554     S
V3     Er10    10.0   1_544     S
V3     Er11    10.0   1_545     S
V3     Er13    10.0   .     S
V4     Er7    10.0   1_544     S
V4     Er8    10.0   1_554     S
V4     Er12    10.0   1_545     S
V4     Er14    10.0   .     S
V5     V6    10.0   .     S
V5     Er11    10.0   1_545     S
V5     Er12    10.0   1_445     S
V5     Er13    10.0   .     S
V5     Er14    10.0   1_455     S
V6     Er7    10.0   1_445     S
V6     Er8    10.0   1_455     S
V6     Er9    10.0   .     S
V6     Er10    10.0   1_545     S
Er7     V6    10.0   1_665     S
Er7     V2    10.0   1_656     S
Er7     V4    10.0   1_566     S
Er7     Er8    10.0   .     S
Er7     Er10    10.0   .     S
Er7     Er12    10.0   .     S
Er8     V1    10.0   1_656     S
Er8     V6    10.0   1_655     S
Er8     V4    10.0   1_556     S
Er8     Er9    10.0   .     S
Er8     Er14    10.0   .     S
Er9     V1    10.0   1_556     S
Er9     V3    10.0   1_556     S
Er9     Er10    10.0   .     S
Er9     Er13    10.0   .     S
Er10     V3    10.0   1_566     S
Er10     V6    10.0   1_565     S
Er10     V2    10.0   1_556     S
Er10     Er11    10.0   .     S
Er11     V5    10.0   1_565     S
Er11     V3    10.0   1_565     S
Er11     Er12    10.0   .     S
Er11     Er13    10.0   .     S
Er12     V5    10.0   1_665     S
Er12     V4    10.0   1_565     S
Er12     V2    10.0   1_655     S
Er12     Er14    10.0   .     S
Er13     Er14    10.0   .     S
Er14     V5    10.0   1_655     S
Er14     V1    10.0   1_655     S
