data_xbl
_audit_creation_date              2020-02-02
_audit_creation_method            'Pymatgen'
_symmetry_space_group_name_H-M    'P1'
_symmetry_Int_Tables_number       1
loop_
_symmetry_equiv_pos_as_xyz
  x,y,z
_cell_length_a                    36.4575
_cell_length_b                    36.4575
_cell_length_c                    36.4575
_cell_angle_alpha                 90.0
_cell_angle_beta                 90.0
_cell_angle_gamma                 90.0
loop_
_atom_site_label
_atom_site_type_symbol
_atom_site_fract_x
_atom_site_fract_y
_atom_site_fract_z
V1     V     0.8872   0.0   0.5
V2     V     0.1128   0.0   0.5
V3     V     0.0   0.5   0.3872
V4     V     0.0   0.5   0.6128
Er5     Er     0.0   0.75   0.5
Er6     Er     0.0   0.25   0.5
V7     V     0.0   0.5   0.1128
V8     V     0.0   0.5   0.8872
V9     V     0.5   0.3872   0.0
V10     V     0.5   0.6128   0.0
Er11     Er     0.75   0.5   0.0
Er12     Er     0.25   0.5   0.0
V13     V     0.5   0.8872   0.0
V14     V     0.5   0.1128   0.0
V15     V     0.3872   0.0   0.5
V16     V     0.6128   0.0   0.5
Er17     Er     0.5   0.0   0.75
Er18     Er     0.5   0.0   0.25
loop_
_geom_bond_atom_site_label_1
_geom_bond_atom_site_label_2
_geom_bond_distance
_geom_bond_site_symmetry_2
_ccdc_geom_bond_type
V1     Er5    10.0   1_645     S
V1     Er6    10.0   1_655     S
V1     V16    10.0   .     S
V2     Er5    10.0   1_545     S
V2     Er6    10.0   .     S
V2     V15    10.0   .     S
V3     Er5    10.0   .     S
V3     Er6    10.0   .     S
V3     V7    10.0   .     S
V4     Er5    10.0   .     S
V4     Er6    10.0   .     S
V4     V8    10.0   .     S
Er5     V1    10.0   1_465     S
Er5     V2    10.0   1_565     S
Er6     V1    10.0   1_455     S
V7     Er11    10.0   1_455     S
V7     Er12    10.0   .     S
V8     Er11    10.0   1_456     S
V8     Er12    10.0   1_556     S
V9     Er11    10.0   .     S
V9     Er12    10.0   .     S
V9     V14    10.0   .     S
V10     Er11    10.0   .     S
V10     Er12    10.0   .     S
V10     V13    10.0   .     S
Er11     V7    10.0   1_655     S
Er11     V8    10.0   1_654     S
Er12     V8    10.0   1_554     S
V13     Er17    10.0   1_564     S
V13     Er18    10.0   1_565     S
V14     Er17    10.0   1_554     S
V14     Er18    10.0   .     S
V15     Er17    10.0   .     S
V15     Er18    10.0   .     S
V16     Er17    10.0   .     S
V16     Er18    10.0   .     S
Er17     V13    10.0   1_546     S
Er17     V14    10.0   1_556     S
Er18     V13    10.0   1_545     S
