data_xfg
_audit_creation_date              2020-02-02
_audit_creation_method            'Pymatgen'
_symmetry_space_group_name_H-M    'P1'
_symmetry_Int_Tables_number       1
loop_
_symmetry_equiv_pos_as_xyz
  x,y,z
_cell_length_a                    18.478
_cell_length_b                    18.478
_cell_length_c                    38.7119
_cell_angle_alpha                 90.0
_cell_angle_beta                 90.0
_cell_angle_gamma                 90.0
loop_
_atom_site_label
_atom_site_type_symbol
_atom_site_fract_x
_atom_site_fract_y
_atom_site_fract_z
V1     V     0.6555   0.5186   0.2994
V2     V     0.8445   0.9814   0.2006
V3     V     0.7314   0.9055   0.9506
V4     V     0.7686   0.0945   0.4506
V5     V     0.6555   0.0186   0.7006
V6     V     0.7686   0.5945   0.5494
V7     V     0.8445   0.4814   0.7994
V8     V     0.1555   0.5186   0.2006
V9     V     0.7314   0.4055   0.0494
V10     V     0.3445   0.9814   0.2994
V11     V     0.2314   0.9055   0.5494
V12     V     0.2314   0.4055   0.4506
V13     V     0.3445   0.4814   0.7006
V14     V     0.2686   0.5945   0.9506
V15     V     0.2686   0.0945   0.0494
V16     V     0.1555   0.0186   0.7994
loop_
_geom_bond_atom_site_label_1
_geom_bond_atom_site_label_2
_geom_bond_distance
_geom_bond_site_symmetry_2
_ccdc_geom_bond_type
V1     V4    10.0   .     S
V1     V9    10.0   .     S
V1     V6    10.0   .     S
V1     V8    10.0   1_655     S
V1     V12    10.0   .     S
V1     V8    10.0   .     S
V1     V2    10.0   .     S
V2     V9    10.0   1_565     S
V2     V4    10.0   1_565     S
V2     V3    10.0   1_554     S
V2     V10    10.0   .     S
V2     V15    10.0   1_665     S
V2     V10    10.0   1_655     S
V3     V9    10.0   1_566     S
V3     V16    10.0   1_665     S
V3     V2    10.0   1_556     S
V3     V5    10.0   1_565     S
V3     V7    10.0   .     S
V3     V9    10.0   1_556     S
V3     V15    10.0   1_566     S
V4     V6    10.0   .     S
V4     V2    10.0   1_545     S
V4     V10    10.0   1_545     S
V4     V5    10.0   .     S
V4     V6    10.0   1_545     S
V4     V11    10.0   1_645     S
V5     V16    10.0   1_655     S
V5     V6    10.0   1_545     S
V5     V3    10.0   1_545     S
V5     V11    10.0   1_545     S
V5     V16    10.0   .     S
V5     V7    10.0   .     S
V6     V5    10.0   1_565     S
V6     V4    10.0   1_565     S
V6     V13    10.0   .     S
V6     V7    10.0   .     S
V6     V12    10.0   1_655     S
V7     V13    10.0   .     S
V7     V9    10.0   1_556     S
V7     V14    10.0   1_655     S
V7     V13    10.0   1_655     S
V8     V15    10.0   .     S
V8     V12    10.0   .     S
V8     V9    10.0   1_455     S
V8     V1    10.0   1_455     S
V8     V14    10.0   1_554     S
V8     V10    10.0   .     S
V9     V2    10.0   1_545     S
V9     V3    10.0   1_544     S
V9     V3    10.0   1_554     S
V9     V8    10.0   1_655     S
V9     V7    10.0   1_554     S
V9     V14    10.0   1_554     S
V10     V4    10.0   1_565     S
V10     V12    10.0   1_565     S
V10     V15    10.0   1_565     S
V10     V11    10.0   .     S
V10     V2    10.0   1_455     S
V11     V12    10.0   1_565     S
V11     V5    10.0   1_565     S
V11     V13    10.0   .     S
V11     V12    10.0   .     S
V11     V16    10.0   1_565     S
V11     V4    10.0   1_465     S
V12     V10    10.0   1_545     S
V12     V11    10.0   1_545     S
V12     V13    10.0   .     S
V12     V6    10.0   1_455     S
V13     V14    10.0   .     S
V13     V7    10.0   1_455     S
V13     V16    10.0   .     S
V14     V15    10.0   1_556     S
V14     V7    10.0   1_455     S
V14     V8    10.0   1_556     S
V14     V16    10.0   1_565     S
V14     V15    10.0   1_566     S
V14     V9    10.0   1_556     S
V15     V14    10.0   1_554     S
V15     V10    10.0   1_545     S
V15     V2    10.0   1_445     S
V15     V16    10.0   1_554     S
V15     V14    10.0   1_544     S
V15     V3    10.0   1_544     S
V16     V3    10.0   1_445     S
V16     V5    10.0   1_455     S
V16     V15    10.0   1_556     S
V16     V14    10.0   1_545     S
V16     V11    10.0   1_545     S
