data_xww
_audit_creation_date              2020-02-02
_audit_creation_method            'Pymatgen'
_symmetry_space_group_name_H-M    'P1'
_symmetry_Int_Tables_number       1
loop_
_symmetry_equiv_pos_as_xyz
  x,y,z
_cell_length_a                    19.9652
_cell_length_b                    17.0745
_cell_length_c                    32.1113
_cell_angle_alpha                 90.0
_cell_angle_beta                 100.1837
_cell_angle_gamma                 90.0
loop_
_atom_site_label
_atom_site_type_symbol
_atom_site_fract_x
_atom_site_fract_y
_atom_site_fract_z
V1     V     0.0952   0.1337   0.1259
Er2     Er     0.6868   0.3663   0.9423
V3     V     0.5952   0.3663   0.6259
Er4     Er     0.1868   0.1337   0.4423
V5     V     0.4048   0.6337   0.3741
Er6     Er     0.8132   0.8663   0.5577
V7     V     0.9048   0.8663   0.8741
Er8     Er     0.3132   0.6337   0.0577
loop_
_geom_bond_atom_site_label_1
_geom_bond_atom_site_label_2
_geom_bond_distance
_geom_bond_site_symmetry_2
_ccdc_geom_bond_type
V1     Er2    10.0   1_454     S
V1     Er4    10.0   .     S
V1     Er8    10.0   1_545     S
V1     Er8    10.0   .     S
Er2     V7    10.0   1_545     S
Er2     V1    10.0   1_656     S
Er2     V7    10.0   .     S
Er2     V3    10.0   .     S
Er2     Er8    10.0   1_556     S
V3     Er4    10.0   .     S
V3     Er6    10.0   .     S
V3     Er6    10.0   1_545     S
Er4     V5    10.0   .     S
Er4     V5    10.0   1_545     S
Er4     Er6    10.0   1_445     S
V5     Er4    10.0   1_565     S
V5     Er6    10.0   .     S
V5     Er8    10.0   .     S
Er6     V3    10.0   1_565     S
Er6     V7    10.0   .     S
Er6     Er4    10.0   1_665     S
V7     Er2    10.0   1_565     S
V7     Er8    10.0   1_656     S
Er8     Er2    10.0   1_554     S
Er8     V1    10.0   1_565     S
Er8     V7    10.0   1_454     S
