data_ycq
_audit_creation_date              2020-02-02
_audit_creation_method            'Pymatgen'
_symmetry_space_group_name_H-M    'P1'
_symmetry_Int_Tables_number       1
loop_
_symmetry_equiv_pos_as_xyz
  x,y,z
_cell_length_a                    58.0988
_cell_length_b                    58.0988
_cell_length_c                    58.0988
_cell_angle_alpha                 90.0
_cell_angle_beta                 90.0
_cell_angle_gamma                 90.0
loop_
_atom_site_label
_atom_site_type_symbol
_atom_site_fract_x
_atom_site_fract_y
_atom_site_fract_z
Er1     Er     0.8101   0.1899   0.0
Er2     Er     0.6899   0.3101   0.0
Er3     Er     0.8101   0.0   0.1899
Er4     Er     0.6899   0.0   0.3101
V5     V     0.7721   0.3333   0.3333
V6     V     0.7279   0.3333   0.1667
V7     V     0.7721   0.1667   0.1667
V8     V     0.7279   0.1667   0.3333
Er9     Er     0.8101   0.3101   0.5
Er10     Er     0.6899   0.1899   0.5
V11     V     0.8333   0.8333   0.2279
V12     V     0.6667   0.8333   0.2721
V13     V     0.8333   0.6667   0.2721
V14     V     0.6667   0.6667   0.2279
Er15     Er     0.8101   0.5   0.3101
Er16     Er     0.6899   0.5   0.1899
Er17     Er     0.0   0.8101   0.1899
Er18     Er     0.0   0.6899   0.3101
Er19     Er     0.1899   0.8101   0.0
Er20     Er     0.3101   0.6899   0.0
V21     V     0.3333   0.7721   0.3333
V22     V     0.1667   0.7279   0.3333
V23     V     0.1667   0.7721   0.1667
V24     V     0.3333   0.7279   0.1667
Er25     Er     0.5   0.8101   0.3101
Er26     Er     0.5   0.6899   0.1899
V27     V     0.2279   0.8333   0.8333
V28     V     0.2721   0.8333   0.6667
V29     V     0.2721   0.6667   0.8333
V30     V     0.2279   0.6667   0.6667
Er31     Er     0.3101   0.8101   0.5
Er32     Er     0.1899   0.6899   0.5
V33     V     0.8333   0.2279   0.8333
V34     V     0.6667   0.2721   0.8333
V35     V     0.8333   0.2721   0.6667
V36     V     0.6667   0.2279   0.6667
Er37     Er     0.5   0.3101   0.8101
Er38     Er     0.5   0.1899   0.6899
Er39     Er     0.1899   0.0   0.8101
Er40     Er     0.3101   0.0   0.6899
Er41     Er     0.0   0.1899   0.8101
Er42     Er     0.0   0.3101   0.6899
V43     V     0.3333   0.3333   0.7721
V44     V     0.1667   0.1667   0.7721
V45     V     0.1667   0.3333   0.7279
V46     V     0.3333   0.1667   0.7279
Er47     Er     0.3101   0.5   0.8101
Er48     Er     0.1899   0.5   0.6899
loop_
_geom_bond_atom_site_label_1
_geom_bond_atom_site_label_2
_geom_bond_distance
_geom_bond_site_symmetry_2
_ccdc_geom_bond_type
Er1     Er2    9.874   .     S
Er1     V33    10.027   1_554     S
Er1     V7    10.027   .     S
Er2     V34    10.027   1_554     S
Er2     V6    10.027   .     S
Er3     Er4    9.874   .     S
Er3     V11    10.027   1_545     S
Er3     V7    10.027   .     S
Er4     V12    10.027   1_545     S
Er4     V8    10.027   .     S
V5     V6    10.009   .     S
V5     V8    10.009   .     S
V5     Er9    10.027   .     S
V5     Er15    10.027   .     S
V6     V7    10.009   .     S
V6     Er16    10.027   .     S
V7     V8    10.009   .     S
V8     Er10    10.027   .     S
Er9     Er10    9.874   .     S
Er9     V35    10.027   .     S
Er10     V36    10.027   .     S
V11     Er3    10.027   1_565     S
V11     V12    10.009   .     S
V11     V13    10.009   .     S
V11     Er17    10.027   1_655     S
V12     Er4    10.027   1_565     S
V12     V14    10.009   .     S
V12     Er25    10.027   .     S
V13     V14    10.009   .     S
V13     Er15    10.027   .     S
V13     Er18    10.027   1_655     S
V14     Er16    10.027   .     S
V14     Er26    10.027   .     S
Er15     Er16    9.874   .     S
Er17     Er18    9.874   .     S
Er17     V11    10.027   1_455     S
Er17     V23    10.027   .     S
Er18     V13    10.027   1_455     S
Er18     V22    10.027   .     S
Er19     Er20    9.874   .     S
Er19     V27    10.027   1_554     S
Er19     V23    10.027   .     S
Er20     V29    10.027   1_554     S
Er20     V24    10.027   .     S
V21     V22    10.009   .     S
V21     V24    10.009   .     S
V21     Er25    10.027   .     S
V21     Er31    10.027   .     S
V22     V23    10.009   .     S
V22     Er32    10.027   .     S
V23     V24    10.009   .     S
V24     Er26    10.027   .     S
Er25     Er26    9.874   .     S
V27     Er19    10.027   1_556     S
V27     V29    10.009   .     S
V27     V28    10.009   .     S
V27     Er39    10.027   1_565     S
V28     V30    10.009   .     S
V28     Er31    10.027   .     S
V28     Er40    10.027   1_565     S
V29     Er20    10.027   1_556     S
V29     V30    10.009   .     S
V29     Er47    10.027   .     S
V30     Er32    10.027   .     S
V30     Er48    10.027   .     S
Er31     Er32    9.874   .     S
V33     Er1    10.027   1_556     S
V33     V35    10.009   .     S
V33     V34    10.009   .     S
V33     Er41    10.027   1_655     S
V34     Er2    10.027   1_556     S
V34     V36    10.009   .     S
V34     Er37    10.027   .     S
V35     V36    10.009   .     S
V35     Er42    10.027   1_655     S
V36     Er38    10.027   .     S
Er37     Er38    9.874   .     S
Er37     V43    10.027   .     S
Er38     V46    10.027   .     S
Er39     Er40    9.874   .     S
Er39     V27    10.027   1_545     S
Er39     V44    10.027   .     S
Er40     V28    10.027   1_545     S
Er40     V46    10.027   .     S
Er41     Er42    9.874   .     S
Er41     V33    10.027   1_455     S
Er41     V44    10.027   .     S
Er42     V35    10.027   1_455     S
Er42     V45    10.027   .     S
V43     V46    10.009   .     S
V43     V45    10.009   .     S
V43     Er47    10.027   .     S
V44     V45    10.009   .     S
V44     V46    10.009   .     S
V45     Er48    10.027   .     S
Er47     Er48    9.874   .     S
