data_ydqa
_audit_creation_date              2020-02-02
_audit_creation_method            'Pymatgen'
_symmetry_space_group_name_H-M    'P1'
_symmetry_Int_Tables_number       1
loop_
_symmetry_equiv_pos_as_xyz
  x,y,z
_cell_length_a                    148.5045
_cell_length_b                    148.5045
_cell_length_c                    148.5045
_cell_angle_alpha                 90.0
_cell_angle_beta                 90.0
_cell_angle_gamma                 90.0
loop_
_atom_site_label
_atom_site_type_symbol
_atom_site_fract_x
_atom_site_fract_y
_atom_site_fract_z
Ce1     Ce     0.304   0.304   0.1106
Ti2     Ti     0.2871   0.2394   0.1192
Ti3     Ti     0.2394   0.2871   0.1192
V4     V     0.293   0.1726   0.125
V5     V     0.1726   0.293   0.125
Er6     Er     0.1488   0.3513   0.1012
Ce7     Ce     0.1394   0.304   0.946
Ti8     Ti     0.1308   0.2871   0.0106
Ti9     Ti     0.1308   0.2394   0.963
V10     V     0.125   0.1726   0.957
V11     V     0.125   0.293   0.0774
Er12     Er     0.1488   0.1488   0.8987
Er13     Er     0.3513   0.1488   0.1012
Ce14     Ce     0.304   0.1394   0.946
Ti15     Ti     0.2871   0.1308   0.0106
Ti16     Ti     0.2394   0.1308   0.963
V17     V     0.1726   0.125   0.957
V18     V     0.293   0.125   0.0774
Er19     Er     0.3513   0.1012   0.1488
Ce20     Ce     0.304   0.1106   0.304
Ti21     Ti     0.2394   0.1192   0.2871
Ti22     Ti     0.2871   0.1192   0.2394
V23     V     0.1726   0.125   0.293
V24     V     0.293   0.125   0.1726
Er25     Er     0.1488   0.1012   0.3513
Ce26     Ce     0.1394   0.946   0.304
Ti27     Ti     0.1308   0.0106   0.2871
Ti28     Ti     0.1308   0.963   0.2394
V29     V     0.125   0.957   0.1726
V30     V     0.125   0.0774   0.293
Er31     Er     0.1488   0.8987   0.1488
Ce32     Ce     0.304   0.946   0.1393
Ti33     Ti     0.2871   0.0106   0.1308
Ti34     Ti     0.2394   0.963   0.1308
V35     V     0.293   0.0774   0.125
V36     V     0.1726   0.957   0.125
Ce37     Ce     0.1106   0.304   0.304
Ti38     Ti     0.1192   0.2871   0.2394
Ti39     Ti     0.1192   0.2394   0.2871
V40     V     0.125   0.293   0.1726
V41     V     0.125   0.1726   0.293
Er42     Er     0.1012   0.3513   0.1488
Er43     Er     0.1012   0.1488   0.3513
Ce44     Ce     0.946   0.304   0.1394
Ti45     Ti     0.0106   0.2871   0.1308
Ti46     Ti     0.963   0.2394   0.1308
V47     V     0.957   0.1726   0.125
V48     V     0.0774   0.293   0.125
Ce49     Ce     0.946   0.1393   0.304
Ti50     Ti     0.0106   0.1308   0.2871
Ti51     Ti     0.963   0.1308   0.2394
V52     V     0.957   0.125   0.1726
V53     V     0.0774   0.125   0.293
Er54     Er     0.8987   0.1488   0.1488
Er55     Er     0.8987   0.1012   0.1012
Er56     Er     0.1012   0.1012   0.8987
Ce57     Ce     0.946   0.1106   0.946
Ti58     Ti     0.0106   0.1192   0.963
Ti59     Ti     0.963   0.1192   0.0106
V60     V     0.0774   0.125   0.957
V61     V     0.957   0.125   0.0774
Ce62     Ce     0.946   0.946   0.1106
Ti63     Ti     0.0106   0.963   0.1192
Ti64     Ti     0.963   0.0106   0.1192
V65     V     0.0774   0.957   0.125
V66     V     0.957   0.0774   0.125
Er67     Er     0.1012   0.8987   0.1012
Ce68     Ce     0.1106   0.946   0.946
Ti69     Ti     0.1192   0.0106   0.963
Ti70     Ti     0.1192   0.963   0.0106
V71     V     0.125   0.957   0.0774
V72     V     0.125   0.0774   0.957
Ce73     Ce     0.054   0.054   0.8894
Ti74     Ti     0.037   0.9894   0.8808
Ti75     Ti     0.9894   0.0371   0.8808
V76     V     0.9226   0.043   0.875
V77     V     0.043   0.9226   0.875
Er78     Er     0.1013   0.8988   0.8988
Ce79     Ce     0.054   0.8894   0.054
Ti80     Ti     0.9894   0.8808   0.037
Ti81     Ti     0.0371   0.8808   0.9894
V82     V     0.9226   0.875   0.043
V83     V     0.043   0.875   0.9226
Er84     Er     0.8988   0.8988   0.1013
Ce85     Ce     0.8894   0.054   0.054
Ti86     Ti     0.8808   0.037   0.9894
Ti87     Ti     0.8808   0.9894   0.0371
V88     V     0.875   0.9226   0.043
V89     V     0.875   0.043   0.9226
Er90     Er     0.8988   0.1013   0.8988
Ce91     Ce     0.696   0.8894   0.696
Ti92     Ti     0.7606   0.8808   0.713
Ti93     Ti     0.713   0.8808   0.7606
V94     V     0.8274   0.875   0.707
V95     V     0.707   0.875   0.8274
Er96     Er     0.6487   0.8988   0.8512
Er97     Er     0.8512   0.8988   0.6487
Ce98     Ce     0.696   0.054   0.8606
Ti99     Ti     0.7606   0.0371   0.8692
Ti100     Ti     0.713   0.9894   0.8692
V101     V     0.707   0.9226   0.875
V102     V     0.8274   0.043   0.875
Ce103     Ce     0.8606   0.054   0.696
Ti104     Ti     0.8692   0.037   0.7606
Ti105     Ti     0.8692   0.9894   0.713
V106     V     0.875   0.9226   0.707
V107     V     0.875   0.043   0.8274
Er108     Er     0.8512   0.1013   0.8512
Ce109     Ce     0.8894   0.696   0.696
Ti110     Ti     0.8808   0.713   0.7606
Ti111     Ti     0.8808   0.7606   0.713
V112     V     0.875   0.707   0.8274
V113     V     0.875   0.8274   0.707
Er114     Er     0.8988   0.8512   0.6487
Er115     Er     0.8988   0.6487   0.8512
Ce116     Ce     0.054   0.8606   0.696
Ti117     Ti     0.0371   0.8692   0.7606
Ti118     Ti     0.9894   0.8692   0.713
V119     V     0.9226   0.875   0.707
V120     V     0.043   0.875   0.8274
Ce121     Ce     0.054   0.696   0.8606
Ti122     Ti     0.037   0.7606   0.8692
Ti123     Ti     0.9894   0.713   0.8692
V124     V     0.9226   0.707   0.875
V125     V     0.043   0.8274   0.875
Er126     Er     0.1013   0.8512   0.8512
Er127     Er     0.6487   0.8512   0.8988
Ce128     Ce     0.696   0.696   0.8894
Ti129     Ti     0.713   0.7606   0.8808
Ti130     Ti     0.7606   0.713   0.8808
V131     V     0.707   0.8274   0.875
V132     V     0.8274   0.707   0.875
Er133     Er     0.8512   0.6487   0.8988
Ce134     Ce     0.8606   0.696   0.054
Ti135     Ti     0.8692   0.7606   0.0371
Ti136     Ti     0.8692   0.713   0.9894
V137     V     0.875   0.707   0.9226
V138     V     0.875   0.8274   0.043
Ce139     Ce     0.696   0.8606   0.054
Ti140     Ti     0.7606   0.8692   0.037
Ti141     Ti     0.713   0.8692   0.9894
V142     V     0.707   0.875   0.9226
V143     V     0.8274   0.875   0.043
Er144     Er     0.8512   0.8512   0.1013
Ce145     Ce     0.8894   0.554   0.554
Ti146     Ti     0.8808   0.537   0.4894
Ti147     Ti     0.8808   0.4894   0.537
V148     V     0.875   0.543   0.4226
V149     V     0.875   0.4226   0.543
Er150     Er     0.8988   0.6013   0.3988
Ce151     Ce     0.054   0.554   0.3893
Ti152     Ti     0.9894   0.537   0.3808
Ti153     Ti     0.037   0.4894   0.3808
V154     V     0.9226   0.543   0.375
V155     V     0.043   0.4226   0.375
Er156     Er     0.1013   0.3988   0.3988
Ce157     Ce     0.054   0.3893   0.554
Ti158     Ti     0.9894   0.3808   0.537
Ti159     Ti     0.0371   0.3808   0.4894
V160     V     0.9226   0.375   0.543
V161     V     0.043   0.375   0.4226
Er162     Er     0.8988   0.3988   0.6013
Ce163     Ce     0.8894   0.196   0.196
Ti164     Ti     0.8808   0.2606   0.213
Ti165     Ti     0.8808   0.2129   0.2606
V166     V     0.875   0.3274   0.207
V167     V     0.875   0.207   0.3274
Er168     Er     0.8988   0.1487   0.3512
Er169     Er     0.8988   0.3512   0.1487
Ce170     Ce     0.054   0.3607   0.196
Ti171     Ti     0.0371   0.3692   0.2606
Ti172     Ti     0.9894   0.3692   0.213
V173     V     0.9226   0.375   0.207
V174     V     0.043   0.375   0.3274
Er175     Er     0.1013   0.3512   0.3512
Ce176     Ce     0.054   0.196   0.3607
Ti177     Ti     0.037   0.2606   0.3692
Ti178     Ti     0.9894   0.213   0.3692
V179     V     0.9226   0.207   0.375
V180     V     0.043   0.3274   0.375
Ce181     Ce     0.696   0.554   0.3606
Ti182     Ti     0.713   0.4894   0.3692
Ti183     Ti     0.7606   0.537   0.3692
V184     V     0.707   0.4226   0.375
V185     V     0.8274   0.543   0.375
Er186     Er     0.8512   0.6013   0.3512
Ce187     Ce     0.8606   0.554   0.196
Ti188     Ti     0.8692   0.537   0.2606
Ti189     Ti     0.8692   0.4894   0.213
V190     V     0.875   0.4226   0.207
V191     V     0.875   0.543   0.3274
Er192     Er     0.6487   0.3988   0.3512
Ce193     Ce     0.696   0.3893   0.196
Ti194     Ti     0.713   0.3808   0.2606
Ti195     Ti     0.7606   0.3808   0.2129
V196     V     0.707   0.375   0.3274
V197     V     0.8274   0.375   0.207
Er198     Er     0.8512   0.3988   0.1487
Ce199     Ce     0.696   0.3607   0.554
Ti200     Ti     0.7606   0.3692   0.537
Ti201     Ti     0.713   0.3692   0.4894
V202     V     0.707   0.375   0.4226
V203     V     0.8274   0.375   0.543
Er204     Er     0.6487   0.3512   0.3988
Ce205     Ce     0.696   0.196   0.3893
Ti206     Ti     0.713   0.2606   0.3808
Ti207     Ti     0.7606   0.213   0.3808
V208     V     0.707   0.3274   0.375
V209     V     0.8274   0.207   0.375
Er210     Er     0.8512   0.3512   0.6013
Ce211     Ce     0.8606   0.196   0.554
Ti212     Ti     0.8692   0.2606   0.537
Ti213     Ti     0.8692   0.213   0.4894
V214     V     0.875   0.207   0.4226
V215     V     0.875   0.3274   0.543
Er216     Er     0.8512   0.1487   0.3988
Er217     Er     0.8513   0.1012   0.6488
Ce218     Ce     0.804   0.946   0.6394
Ti219     Ti     0.787   0.0106   0.6308
Ti220     Ti     0.7394   0.963   0.6308
V221     V     0.793   0.0774   0.625
V222     V     0.6726   0.957   0.625
Er223     Er     0.6488   0.8987   0.6488
Ce224     Ce     0.6394   0.946   0.804
Ti225     Ti     0.6308   0.0106   0.787
Ti226     Ti     0.6308   0.963   0.7394
V227     V     0.625   0.0774   0.793
V228     V     0.625   0.957   0.6726
Ce229     Ce     0.804   0.1106   0.804
Ti230     Ti     0.7394   0.1192   0.787
Ti231     Ti     0.787   0.1192   0.7394
V232     V     0.793   0.125   0.6726
V233     V     0.6726   0.125   0.793
Er234     Er     0.6488   0.1012   0.8513
Ce235     Ce     0.6106   0.946   0.446
Ti236     Ti     0.6192   0.0106   0.463
Ti237     Ti     0.6192   0.963   0.5106
V238     V     0.625   0.0774   0.457
V239     V     0.625   0.957   0.5774
Er240     Er     0.6012   0.1012   0.3987
Ce241     Ce     0.446   0.946   0.6106
Ti242     Ti     0.463   0.0106   0.6192
Ti243     Ti     0.5106   0.963   0.6192
V244     V     0.457   0.0774   0.625
V245     V     0.5774   0.957   0.625
Er246     Er     0.6012   0.8987   0.6012
Ce247     Ce     0.446   0.1106   0.446
Ti248     Ti     0.5106   0.1192   0.463
Ti249     Ti     0.463   0.1192   0.5106
V250     V     0.457   0.125   0.5774
V251     V     0.5774   0.125   0.457
Er252     Er     0.3987   0.1012   0.6012
Ce253     Ce     0.6106   0.304   0.804
Ti254     Ti     0.6192   0.2394   0.787
Ti255     Ti     0.6192   0.2871   0.7394
V256     V     0.625   0.1726   0.793
V257     V     0.625   0.293   0.6726
Er258     Er     0.6012   0.3513   0.6488
Ce259     Ce     0.446   0.304   0.6394
Ti260     Ti     0.463   0.2394   0.6308
Ti261     Ti     0.5106   0.2871   0.6308
V262     V     0.457   0.1726   0.625
V263     V     0.5774   0.293   0.625
Er264     Er     0.3987   0.1488   0.6488
Ce265     Ce     0.446   0.1393   0.804
Ti266     Ti     0.463   0.1308   0.7394
Ti267     Ti     0.5106   0.1308   0.787
V268     V     0.457   0.125   0.6726
V269     V     0.5774   0.125   0.793
Er270     Er     0.6012   0.1488   0.8513
Er271     Er     0.6488   0.3513   0.6012
Ce272     Ce     0.804   0.304   0.6106
Ti273     Ti     0.787   0.2394   0.6192
Ti274     Ti     0.7394   0.2871   0.6192
V275     V     0.793   0.1726   0.625
V276     V     0.6726   0.293   0.625
Ce277     Ce     0.804   0.1394   0.446
Ti278     Ti     0.787   0.1308   0.5106
Ti279     Ti     0.7394   0.1308   0.463
V280     V     0.793   0.125   0.5774
V281     V     0.6726   0.125   0.457
Er282     Er     0.8513   0.1488   0.6012
Ce283     Ce     0.6394   0.304   0.446
Ti284     Ti     0.6308   0.2394   0.463
Ti285     Ti     0.6308   0.2871   0.5106
V286     V     0.625   0.1726   0.457
V287     V     0.625   0.293   0.5774
Er288     Er     0.6488   0.1488   0.3987
Er289     Er     0.3512   0.6487   0.3988
Ce290     Ce     0.3607   0.696   0.554
Ti291     Ti     0.3692   0.7606   0.537
Ti292     Ti     0.3692   0.713   0.4894
V293     V     0.375   0.707   0.4226
V294     V     0.375   0.8274   0.543
Er295     Er     0.3512   0.8512   0.6013
Ce296     Ce     0.196   0.696   0.3893
Ti297     Ti     0.2606   0.713   0.3808
Ti298     Ti     0.213   0.7606   0.3808
V299     V     0.3274   0.707   0.375
V300     V     0.207   0.8274   0.375
Ce301     Ce     0.196   0.8606   0.554
Ti302     Ti     0.213   0.8692   0.4894
Ti303     Ti     0.2606   0.8692   0.537
V304     V     0.207   0.875   0.4226
V305     V     0.3274   0.875   0.543
Er306     Er     0.1487   0.8512   0.3988
Ce307     Ce     0.554   0.696   0.3607
Ti308     Ti     0.4894   0.713   0.3692
Ti309     Ti     0.537   0.7606   0.3692
V310     V     0.4226   0.707   0.375
V311     V     0.543   0.8274   0.375
Er312     Er     0.3988   0.6487   0.3512
Ce313     Ce     0.3893   0.696   0.196
Ti314     Ti     0.3808   0.713   0.2606
Ti315     Ti     0.3808   0.7606   0.213
V316     V     0.375   0.707   0.3274
V317     V     0.375   0.8274   0.207
Er318     Er     0.6013   0.8512   0.3512
Ce319     Ce     0.554   0.8606   0.196
Ti320     Ti     0.537   0.8692   0.2606
Ti321     Ti     0.4894   0.8692   0.213
V322     V     0.4226   0.875   0.207
V323     V     0.543   0.875   0.3274
Er324     Er     0.3988   0.8512   0.1487
Ce325     Ce     0.196   0.054   0.3607
Ti326     Ti     0.2606   0.0371   0.3692
Ti327     Ti     0.213   0.9894   0.3692
V328     V     0.207   0.9226   0.375
V329     V     0.3274   0.043   0.375
Er330     Er     0.3512   0.1013   0.3512
Ce331     Ce     0.3607   0.054   0.196
Ti332     Ti     0.3692   0.037   0.2606
Ti333     Ti     0.3692   0.9894   0.213
V334     V     0.375   0.9226   0.207
V335     V     0.375   0.043   0.3274
Er336     Er     0.1487   0.8988   0.3512
Ce337     Ce     0.196   0.8894   0.196
Ti338     Ti     0.213   0.8808   0.2606
Ti339     Ti     0.2606   0.8808   0.2129
V340     V     0.207   0.875   0.3274
V341     V     0.3274   0.875   0.207
Er342     Er     0.3512   0.8988   0.1487
Er343     Er     0.6013   0.8988   0.3988
Ce344     Ce     0.554   0.8894   0.554
Ti345     Ti     0.537   0.8808   0.4894
Ti346     Ti     0.4894   0.8808   0.537
V347     V     0.543   0.875   0.4226
V348     V     0.4226   0.875   0.543
Er349     Er     0.3988   0.8988   0.6013
Ce350     Ce     0.554   0.054   0.3893
Ti351     Ti     0.4894   0.0371   0.3808
Ti352     Ti     0.537   0.9894   0.3808
V353     V     0.543   0.9226   0.375
V354     V     0.4226   0.043   0.375
Er355     Er     0.3988   0.1013   0.3988
Ce356     Ce     0.3893   0.054   0.554
Ti357     Ti     0.3808   0.037   0.4894
Ti358     Ti     0.3808   0.9894   0.537
V359     V     0.375   0.9226   0.543
V360     V     0.375   0.043   0.4226
Ce361     Ce     0.946   0.6394   0.804
Ti362     Ti     0.0106   0.6308   0.787
Ti363     Ti     0.963   0.6308   0.7394
V364     V     0.0774   0.625   0.793
V365     V     0.957   0.625   0.6726
Er366     Er     0.1012   0.6488   0.8513
Er367     Er     0.8987   0.6488   0.6488
Ce368     Ce     0.946   0.804   0.6394
Ti369     Ti     0.0106   0.787   0.6308
Ti370     Ti     0.963   0.7394   0.6308
V371     V     0.0774   0.793   0.625
V372     V     0.957   0.6726   0.625
Ce373     Ce     0.1106   0.804   0.804
Ti374     Ti     0.1192   0.787   0.7394
Ti375     Ti     0.1192   0.7394   0.787
V376     V     0.125   0.6726   0.793
V377     V     0.125   0.793   0.6726
Er378     Er     0.1012   0.8513   0.6488
Ce379     Ce     0.946   0.6106   0.446
Ti380     Ti     0.0106   0.6192   0.463
Ti381     Ti     0.963   0.6192   0.5106
V382     V     0.0774   0.625   0.457
V383     V     0.957   0.625   0.5774
Er384     Er     0.8987   0.6012   0.6012
Ce385     Ce     0.946   0.446   0.6106
Ti386     Ti     0.0106   0.463   0.6192
Ti387     Ti     0.963   0.5106   0.6192
V388     V     0.0774   0.457   0.625
V389     V     0.957   0.5774   0.625
Er390     Er     0.1012   0.3987   0.6012
Ce391     Ce     0.1106   0.446   0.446
Ti392     Ti     0.1192   0.463   0.5106
Ti393     Ti     0.1192   0.5106   0.463
V394     V     0.125   0.457   0.5774
V395     V     0.125   0.5774   0.457
Er396     Er     0.1012   0.6012   0.3987
Er397     Er     0.3513   0.6012   0.6488
Ce398     Ce     0.304   0.446   0.6394
Ti399     Ti     0.2394   0.463   0.6308
Ti400     Ti     0.2871   0.5106   0.6308
V401     V     0.1726   0.457   0.625
V402     V     0.293   0.5774   0.625
Er403     Er     0.1488   0.3987   0.6488
Ce404     Ce     0.304   0.6106   0.804
Ti405     Ti     0.2394   0.6192   0.787
Ti406     Ti     0.2871   0.6192   0.7394
V407     V     0.1726   0.625   0.793
V408     V     0.293   0.625   0.6726
Ce409     Ce     0.1394   0.446   0.804
Ti410     Ti     0.1308   0.5106   0.787
Ti411     Ti     0.1308   0.463   0.7394
V412     V     0.125   0.457   0.6726
V413     V     0.125   0.5774   0.793
Er414     Er     0.1488   0.6012   0.8513
Ce415     Ce     0.304   0.804   0.6106
Ti416     Ti     0.2394   0.787   0.6192
Ti417     Ti     0.2871   0.7394   0.6192
V418     V     0.1726   0.793   0.625
V419     V     0.293   0.6726   0.625
Er420     Er     0.1488   0.8513   0.6012
Ce421     Ce     0.1394   0.804   0.446
Ti422     Ti     0.1308   0.787   0.5106
Ti423     Ti     0.1308   0.7394   0.463
V424     V     0.125   0.6726   0.457
V425     V     0.125   0.793   0.5774
Er426     Er     0.1488   0.6488   0.3987
Ce427     Ce     0.304   0.6394   0.446
Ti428     Ti     0.2394   0.6308   0.463
Ti429     Ti     0.2871   0.6308   0.5106
V430     V     0.1726   0.625   0.457
V431     V     0.293   0.625   0.5774
Er432     Er     0.3513   0.6488   0.6012
Ce433     Ce     0.3607   0.196   0.054
Ti434     Ti     0.3692   0.213   0.9894
Ti435     Ti     0.3692   0.2606   0.0371
V436     V     0.375   0.207   0.9226
V437     V     0.375   0.3274   0.043
Er438     Er     0.3512   0.3512   0.1013
Ce439     Ce     0.196   0.3607   0.054
Ti440     Ti     0.2606   0.3692   0.037
Ti441     Ti     0.213   0.3692   0.9894
V442     V     0.207   0.375   0.9226
V443     V     0.3274   0.375   0.043
Er444     Er     0.3512   0.1487   0.8988
Ce445     Ce     0.196   0.196   0.8894
Ti446     Ti     0.2606   0.213   0.8808
Ti447     Ti     0.213   0.2606   0.8808
V448     V     0.3274   0.207   0.875
V449     V     0.207   0.3274   0.875
Er450     Er     0.1487   0.3512   0.8988
Ce451     Ce     0.3893   0.554   0.054
Ti452     Ti     0.3808   0.537   0.9894
Ti453     Ti     0.3808   0.4894   0.0371
V454     V     0.375   0.543   0.9226
V455     V     0.375   0.4226   0.043
Ce456     Ce     0.554   0.554   0.8894
Ti457     Ti     0.4894   0.537   0.8808
Ti458     Ti     0.537   0.4894   0.8808
V459     V     0.4226   0.543   0.875
V460     V     0.543   0.4226   0.875
Er461     Er     0.3988   0.6013   0.8988
Er462     Er     0.6013   0.3988   0.8988
Ce463     Ce     0.554   0.3893   0.054
Ti464     Ti     0.537   0.3808   0.9894
Ti465     Ti     0.4894   0.3808   0.037
V466     V     0.543   0.375   0.9226
V467     V     0.4226   0.375   0.043
Er468     Er     0.3988   0.3988   0.1013
Ce469     Ce     0.554   0.3607   0.696
Ti470     Ti     0.4894   0.3692   0.713
Ti471     Ti     0.537   0.3692   0.7606
V472     V     0.4226   0.375   0.707
V473     V     0.543   0.375   0.8274
Er474     Er     0.6013   0.3512   0.8512
Ce475     Ce     0.554   0.196   0.8606
Ti476     Ti     0.4894   0.213   0.8692
Ti477     Ti     0.537   0.2606   0.8692
V478     V     0.4226   0.207   0.875
V479     V     0.543   0.3274   0.875
Er480     Er     0.3988   0.1487   0.8512
Er481     Er     0.3988   0.3512   0.6487
Ce482     Ce     0.3893   0.196   0.696
Ti483     Ti     0.3808   0.2606   0.713
Ti484     Ti     0.3808   0.2129   0.7606
V485     V     0.375   0.207   0.8274
V486     V     0.375   0.3274   0.707
Ce487     Ce     0.3607   0.554   0.696
Ti488     Ti     0.3692   0.4894   0.713
Ti489     Ti     0.3692   0.537   0.7606
V490     V     0.375   0.4226   0.707
V491     V     0.375   0.543   0.8274
Er492     Er     0.3512   0.3988   0.6487
Ce493     Ce     0.196   0.3893   0.696
Ti494     Ti     0.2606   0.3808   0.713
Ti495     Ti     0.213   0.3808   0.7606
V496     V     0.3274   0.375   0.707
V497     V     0.207   0.375   0.8274
Er498     Er     0.1487   0.3988   0.8512
Ce499     Ce     0.196   0.554   0.8606
Ti500     Ti     0.2606   0.537   0.8692
Ti501     Ti     0.213   0.4894   0.8692
V502     V     0.3274   0.543   0.875
V503     V     0.207   0.4226   0.875
Er504     Er     0.3512   0.6013   0.8512
Ce505     Ce     0.446   0.446   0.1106
Ti506     Ti     0.5106   0.463   0.1192
Ti507     Ti     0.463   0.5106   0.1192
V508     V     0.5774   0.457   0.125
V509     V     0.457   0.5774   0.125
Er510     Er     0.6012   0.3987   0.1012
Er511     Er     0.3987   0.6012   0.1012
Ce512     Ce     0.446   0.6106   0.946
Ti513     Ti     0.463   0.6192   0.0106
Ti514     Ti     0.5106   0.6192   0.963
V515     V     0.457   0.625   0.0774
V516     V     0.5774   0.625   0.957
Ce517     Ce     0.6106   0.446   0.946
Ti518     Ti     0.6192   0.463   0.0106
Ti519     Ti     0.6192   0.5106   0.963
V520     V     0.625   0.457   0.0774
V521     V     0.625   0.5774   0.957
Er522     Er     0.6012   0.6012   0.8987
Er523     Er     0.6488   0.8513   0.1012
Ce524     Ce     0.804   0.804   0.1106
Ti525     Ti     0.787   0.7394   0.1192
Ti526     Ti     0.7394   0.787   0.1192
V527     V     0.6726   0.793   0.125
V528     V     0.793   0.6726   0.125
Er529     Er     0.8513   0.6488   0.1012
Ce530     Ce     0.6394   0.804   0.946
Ti531     Ti     0.6308   0.787   0.0106
Ti532     Ti     0.6308   0.7394   0.963
V533     V     0.625   0.793   0.0774
V534     V     0.625   0.6726   0.957
Ce535     Ce     0.804   0.6394   0.946
Ti536     Ti     0.787   0.6308   0.0106
Ti537     Ti     0.7394   0.6308   0.963
V538     V     0.793   0.625   0.0774
V539     V     0.6726   0.625   0.957
Er540     Er     0.6488   0.6488   0.8987
Er541     Er     0.6012   0.6488   0.3513
Ce542     Ce     0.446   0.6394   0.304
Ti543     Ti     0.463   0.6308   0.2394
Ti544     Ti     0.5106   0.6308   0.2871
V545     V     0.457   0.625   0.1726
V546     V     0.5774   0.625   0.293
Er547     Er     0.3987   0.6488   0.1488
Ce548     Ce     0.6106   0.804   0.304
Ti549     Ti     0.6192   0.787   0.2394
Ti550     Ti     0.6192   0.7394   0.2871
V551     V     0.625   0.793   0.1726
V552     V     0.625   0.6726   0.293
Ce553     Ce     0.446   0.804   0.1394
Ti554     Ti     0.5106   0.787   0.1308
Ti555     Ti     0.463   0.7394   0.1308
V556     V     0.5774   0.793   0.125
V557     V     0.457   0.6726   0.125
Er558     Er     0.6012   0.8513   0.1488
Ce559     Ce     0.804   0.6106   0.304
Ti560     Ti     0.787   0.6192   0.2394
Ti561     Ti     0.7394   0.6192   0.2871
V562     V     0.793   0.625   0.1726
V563     V     0.6726   0.625   0.293
Er564     Er     0.8513   0.6012   0.1488
Ce565     Ce     0.804   0.446   0.1394
Ti566     Ti     0.7394   0.463   0.1308
Ti567     Ti     0.787   0.5106   0.1308
V568     V     0.6726   0.457   0.125
V569     V     0.793   0.5774   0.125
Er570     Er     0.6488   0.3987   0.1488
Ce571     Ce     0.6394   0.446   0.304
Ti572     Ti     0.6308   0.463   0.2394
Ti573     Ti     0.6308   0.5106   0.2871
V574     V     0.625   0.457   0.1726
V575     V     0.625   0.5774   0.293
Er576     Er     0.6488   0.6012   0.3513
loop_
_geom_bond_atom_site_label_1
_geom_bond_atom_site_label_2
_geom_bond_distance
_geom_bond_site_symmetry_2
_ccdc_geom_bond_type
Ce1     Er438    9.999   .     S
Ce1     Ti2    10.0   .     S
Ce1     Ti3    10.0   .     S
Ti2     Ti3    9.999   .     S
Ti2     V4    10.0   .     S
Ti3     V5    10.0   .     S
V4     Er13    9.999   .     S
V4     V18    10.001   .     S
V4     V24    10.001   .     S
V5     Er6    9.999   .     S
V5     V11    10.001   .     S
V5     V40    10.001   .     S
Er6     V11    9.999   .     S
Er6     Er42    10.001   .     S
Er6     Ce439    9.999   .     S
Ce7     Er450    9.999   .     S
Ce7     Ti8    10.0   1_556     S
Ce7     Ti9    10.0   .     S
Ti8     Ce7    10.0   1_554     S
Ti8     Ti9    9.999   1_554     S
Ti8     V11    10.0   .     S
Ti9     Ti8    9.999   1_556     S
Ti9     V10    10.0   .     S
V10     Er12    9.999   .     S
V10     V17    10.001   .     S
V10     V60    10.001   .     S
V11     V48    10.001   .     S
Er12     V17    9.999   .     S
Er12     Er56    10.001   .     S
Er12     Ce445    9.999   .     S
Er13     V18    9.999   .     S
Er13     Er19    10.001   .     S
Er13     Ce433    9.999   .     S
Ce14     Er444    9.999   .     S
Ce14     Ti15    10.0   1_556     S
Ce14     Ti16    10.0   .     S
Ti15     Ce14    10.0   1_554     S
Ti15     Ti16    9.999   1_554     S
Ti15     V18    10.0   .     S
Ti16     Ti15    9.999   1_556     S
Ti16     V17    10.0   .     S
V17     V72    10.001   .     S
V18     V35    10.001   .     S
Er19     V35    9.999   .     S
Er19     V24    9.999   .     S
Er19     Ce331    9.999   .     S
Ce20     Er330    9.999   .     S
Ce20     Ti21    10.0   .     S
Ce20     Ti22    10.0   .     S
Ti21     Ti22    9.999   .     S
Ti21     V23    10.0   .     S
Ti22     V24    10.0   .     S
V23     Er25    9.999   .     S
V23     V30    10.001   .     S
V23     V41    10.001   .     S
V24     V35    10.001   .     S
Er25     V30    9.999   .     S
Er25     Er43    10.001   .     S
Er25     Ce325    9.999   .     S
Ce26     Er336    9.999   .     S
Ce26     Ti27    10.0   1_565     S
Ce26     Ti28    10.0   .     S
Ti27     Ce26    10.0   1_545     S
Ti27     Ti28    9.999   1_545     S
Ti27     V30    10.0   .     S
Ti28     Ti27    9.999   1_565     S
Ti28     V29    10.0   .     S
V29     Er31    9.999   .     S
V29     V36    10.001   .     S
V29     V65    10.001   .     S
V30     V53    10.001   .     S
Er31     V36    9.999   .     S
Er31     Er67    10.001   .     S
Er31     Ce337    9.999   .     S
Ce32     Er342    9.999   .     S
Ce32     Ti33    10.0   1_565     S
Ce32     Ti34    10.0   .     S
Ti33     Ce32    10.0   1_545     S
Ti33     Ti34    9.999   1_545     S
Ti33     V35    10.0   .     S
Ti34     Ti33    9.999   1_565     S
Ti34     V36    10.0   .     S
V36     V71    10.001   .     S
Ce37     Er175    9.999   .     S
Ce37     Ti38    10.0   .     S
Ce37     Ti39    10.0   .     S
Ti38     Ti39    9.999   .     S
Ti38     V40    10.0   .     S
Ti39     V41    10.0   .     S
V40     Er42    9.999   .     S
V40     V48    10.001   .     S
V41     Er43    9.999   .     S
V41     V53    10.001   .     S
Er42     V48    9.999   .     S
Er42     Ce170    9.999   .     S
Er43     V53    9.999   .     S
Er43     Ce176    9.999   .     S
Ce44     Er169    9.999   .     S
Ce44     Ti45    10.0   1_655     S
Ce44     Ti46    10.0   .     S
Ti45     Ce44    10.0   1_455     S
Ti45     Ti46    9.999   1_455     S
Ti45     V48    10.0   .     S
Ti46     Ti45    9.999   1_655     S
Ti46     V47    10.0   .     S
V47     Er54    9.999   .     S
V47     V52    10.001   .     S
V47     V61    10.001   .     S
Ce49     Er168    9.999   .     S
Ce49     Ti50    10.0   1_655     S
Ce49     Ti51    10.0   .     S
Ti50     Ce49    10.0   1_455     S
Ti50     Ti51    9.999   1_455     S
Ti50     V53    10.0   .     S
Ti51     Ti50    9.999   1_655     S
Ti51     V52    10.0   .     S
V52     Er54    9.999   .     S
V52     V66    10.001   .     S
Er54     Er55    10.001   .     S
Er54     Ce163    9.999   .     S
Er55     V61    9.999   .     S
Er55     V66    9.999   .     S
Er55     Ce85    9.999   .     S
Er56     V72    9.999   .     S
Er56     V60    9.999   .     S
Er56     Ce73    9.999   .     S
Ce57     Er90    9.999   .     S
Ce57     Ti58    10.0   1_655     S
Ce57     Ti59    10.0   1_556     S
Ti58     Ce57    10.0   1_455     S
Ti58     Ti59    9.999   1_456     S
Ti58     V60    10.0   .     S
Ti59     Ce57    10.0   1_554     S
Ti59     Ti58    9.999   1_654     S
Ti59     V61    10.0   .     S
V60     V72    10.001   .     S
V61     V66    10.001   .     S
Ce62     Er84    9.999   .     S
Ce62     Ti63    10.0   1_655     S
Ce62     Ti64    10.0   1_565     S
Ti63     Ce62    10.0   1_455     S
Ti63     Ti64    9.999   1_465     S
Ti63     V65    10.0   .     S
Ti64     Ce62    10.0   1_545     S
Ti64     Ti63    9.999   1_645     S
Ti64     V66    10.0   .     S
V65     Er67    9.999   .     S
V65     V71    10.001   .     S
Er67     V71    9.999   .     S
Er67     Ce79    9.999   .     S
Ce68     Er78    9.999   .     S
Ce68     Ti70    10.0   1_556     S
Ce68     Ti69    10.0   1_565     S
Ti69     Ce68    10.0   1_545     S
Ti69     Ti70    9.999   1_546     S
Ti69     V72    10.0   .     S
Ti70     Ce68    10.0   1_554     S
Ti70     Ti69    9.999   1_564     S
Ti70     V71    10.0   .     S
Ce73     Ti75    10.0   1_455     S
Ce73     Ti74    10.0   1_545     S
Ti74     Ce73    10.0   1_565     S
Ti74     Ti75    9.999   1_465     S
Ti74     V77    10.0   .     S
Ti75     Ce73    10.0   1_655     S
Ti75     Ti74    9.999   1_645     S
Ti75     V76    10.0   .     S
V76     Er90    9.999   .     S
V76     V89    10.001   .     S
V76     V107    10.001   .     S
V77     Er78    9.999   .     S
V77     V83    10.001   .     S
V77     V120    10.001   .     S
Er78     V83    9.999   .     S
Er78     Er126    10.001   .     S
Ce79     Ti80    10.0   1_455     S
Ce79     Ti81    10.0   1_554     S
Ti80     Ce79    10.0   1_655     S
Ti80     Ti81    9.999   1_654     S
Ti80     V82    10.0   .     S
Ti81     Ce79    10.0   1_556     S
Ti81     Ti80    9.999   1_456     S
Ti81     V83    10.0   .     S
V82     Er84    9.999   .     S
V82     V88    10.001   .     S
V82     V138    10.001   .     S
V83     V125    10.001   .     S
Er84     V88    9.999   .     S
Er84     Er144    10.001   .     S
Ce85     Ti87    10.0   1_545     S
Ce85     Ti86    10.0   1_554     S
Ti86     Ce85    10.0   1_556     S
Ti86     Ti87    9.999   1_546     S
Ti86     V89    10.0   .     S
Ti87     Ce85    10.0   1_565     S
Ti87     Ti86    9.999   1_564     S
Ti87     V88    10.0   .     S
V88     V143    10.001   .     S
V89     Er90    9.999   .     S
V89     V102    10.001   .     S
Er90     Er108    10.001   .     S
Ce91     Er223    9.999   .     S
Ce91     Ti92    10.0   .     S
Ce91     Ti93    10.0   .     S
Ti92     Ti93    9.999   .     S
Ti92     V94    10.0   .     S
Ti93     V95    10.0   .     S
V94     Er97    9.999   .     S
V94     V106    10.001   .     S
V94     V113    10.001   .     S
V95     Er96    9.999   .     S
V95     V101    10.001   .     S
V95     V131    10.001   .     S
Er96     V101    9.999   .     S
Er96     Er127    10.001   .     S
Er96     Ce224    9.999   .     S
Er97     V106    9.999   .     S
Er97     Er114    10.001   .     S
Er97     Ce218    9.999   .     S
Ce98     Er234    9.999   .     S
Ce98     Ti100    10.0   1_545     S
Ce98     Ti99    10.0   .     S
Ti99     Ti100    9.999   1_545     S
Ti99     V102    10.0   .     S
Ti100     Ce98    10.0   1_565     S
Ti100     Ti99    9.999   1_565     S
Ti100     V101    10.0   .     S
V101     V142    10.001   .     S
V102     Er108    9.999   .     S
V102     V107    10.001   .     S
Ce103     Er217    9.999   .     S
Ce103     Ti105    10.0   1_545     S
Ce103     Ti104    10.0   .     S
Ti104     Ti105    9.999   1_545     S
Ti104     V107    10.0   .     S
Ti105     Ce103    10.0   1_565     S
Ti105     Ti104    9.999   1_565     S
Ti105     V106    10.0   .     S
V106     V119    10.001   .     S
V107     Er108    9.999   .     S
Er108     Ce229    9.999   .     S
Ce109     Er367    9.999   .     S
Ce109     Ti111    10.0   .     S
Ce109     Ti110    10.0   .     S
Ti110     Ti111    9.999   .     S
Ti110     V112    10.0   .     S
Ti111     V113    10.0   .     S
V112     Er115    9.999   .     S
V112     V124    10.001   .     S
V112     V132    10.001   .     S
V113     Er114    9.999   .     S
V113     V119    10.001   .     S
Er114     V119    9.999   .     S
Er114     Ce368    9.999   .     S
Er115     V124    9.999   .     S
Er115     Er133    10.001   .     S
Er115     Ce361    9.999   .     S
Ce116     Er378    9.999   .     S
Ce116     Ti118    10.0   1_455     S
Ce116     Ti117    10.0   .     S
Ti117     Ti118    9.999   1_455     S
Ti117     V120    10.0   .     S
Ti118     Ce116    10.0   1_655     S
Ti118     Ti117    9.999   1_655     S
Ti118     V119    10.0   .     S
V120     Er126    9.999   .     S
V120     V125    10.001   .     S
Ce121     Er366    9.999   .     S
Ce121     Ti123    10.0   1_455     S
Ce121     Ti122    10.0   .     S
Ti122     Ti123    9.999   1_455     S
Ti122     V125    10.0   .     S
Ti123     Ce121    10.0   1_655     S
Ti123     Ti122    9.999   1_655     S
Ti123     V124    10.0   .     S
V124     V137    10.001   .     S
V125     Er126    9.999   .     S
Er126     Ce373    9.999   .     S
Er127     V131    9.999   .     S
Er127     V142    9.999   .     S
Er127     Ce530    9.999   .     S
Ce128     Er540    9.999   .     S
Ce128     Ti130    10.0   .     S
Ce128     Ti129    10.0   .     S
Ti129     Ti130    9.999   .     S
Ti129     V131    10.0   .     S
Ti130     V132    10.0   .     S
V131     V142    10.001   .     S
V132     Er133    9.999   .     S
V132     V137    10.001   .     S
Er133     V137    9.999   .     S
Er133     Ce535    9.999   .     S
Ce134     Er529    9.999   .     S
Ce134     Ti136    10.0   1_554     S
Ce134     Ti135    10.0   .     S
Ti135     Ti136    9.999   1_554     S
Ti135     V138    10.0   .     S
Ti136     Ce134    10.0   1_556     S
Ti136     Ti135    9.999   1_556     S
Ti136     V137    10.0   .     S
V138     Er144    9.999   .     S
V138     V143    10.001   .     S
Ce139     Er523    9.999   .     S
Ce139     Ti141    10.0   1_554     S
Ce139     Ti140    10.0   .     S
Ti140     Ti141    9.999   1_554     S
Ti140     V143    10.0   .     S
Ti141     Ce139    10.0   1_556     S
Ti141     Ti140    9.999   1_556     S
Ti141     V142    10.0   .     S
V143     Er144    9.999   .     S
Er144     Ce524    9.999   .     S
Ce145     Er384    9.999   .     S
Ce145     Ti147    10.0   .     S
Ce145     Ti146    10.0   .     S
Ti146     Ti147    9.999   .     S
Ti146     V148    10.0   .     S
Ti147     V149    10.0   .     S
V148     Er150    9.999   .     S
V148     V154    10.001   .     S
V148     V185    10.001   .     S
V149     Er162    9.999   .     S
V149     V160    10.001   .     S
V149     V203    10.001   .     S
Er150     V154    9.999   .     S
Er150     Er186    10.001   .     S
Er150     Ce379    9.999   .     S
Ce151     Er396    9.999   .     S
Ce151     Ti152    10.0   1_455     S
Ce151     Ti153    10.0   .     S
Ti152     Ce151    10.0   1_655     S
Ti152     Ti153    9.999   1_655     S
Ti152     V154    10.0   .     S
Ti153     Ti152    9.999   1_455     S
Ti153     V155    10.0   .     S
V154     V191    10.001   .     S
V155     Er156    9.999   .     S
V155     V161    10.001   .     S
V155     V174    10.001   .     S
Er156     V161    9.999   .     S
Er156     Er175    10.001   .     S
Er156     Ce391    9.999   .     S
Ce157     Er390    9.999   .     S
Ce157     Ti158    10.0   1_455     S
Ce157     Ti159    10.0   .     S
Ti158     Ce157    10.0   1_655     S
Ti158     Ti159    9.999   1_655     S
Ti158     V160    10.0   .     S
Ti159     Ti158    9.999   1_455     S
Ti159     V161    10.0   .     S
V160     Er162    9.999   .     S
V160     V215    10.001   .     S
V161     V180    10.001   .     S
Er162     Er210    10.001   .     S
Er162     Ce385    9.999   .     S
Ce163     Ti164    10.0   .     S
Ce163     Ti165    10.0   .     S
Ti164     Ti165    9.999   .     S
Ti164     V166    10.0   .     S
Ti165     V167    10.0   .     S
V166     Er169    9.999   .     S
V166     V173    10.001   .     S
V166     V197    10.001   .     S
V167     Er168    9.999   .     S
V167     V179    10.001   .     S
V167     V209    10.001   .     S
Er168     V179    9.999   .     S
Er168     Er216    10.001   .     S
Er169     V173    9.999   .     S
Er169     Er198    10.001   .     S
Ce170     Ti172    10.0   1_455     S
Ce170     Ti171    10.0   .     S
Ti171     Ti172    9.999   1_455     S
Ti171     V174    10.0   .     S
Ti172     Ce170    10.0   1_655     S
Ti172     Ti171    9.999   1_655     S
Ti172     V173    10.0   .     S
V173     V190    10.001   .     S
V174     Er175    9.999   .     S
V174     V180    10.001   .     S
Er175     V180    9.999   .     S
Ce176     Ti178    10.0   1_455     S
Ce176     Ti177    10.0   .     S
Ti177     Ti178    9.999   1_455     S
Ti177     V180    10.0   .     S
Ti178     Ce176    10.0   1_655     S
Ti178     Ti177    9.999   1_655     S
Ti178     V179    10.0   .     S
V179     V214    10.001   .     S
Ce181     Er576    9.999   .     S
Ce181     Ti183    10.0   .     S
Ce181     Ti182    10.0   .     S
Ti182     Ti183    9.999   .     S
Ti182     V184    10.0   .     S
Ti183     V185    10.0   .     S
V184     Er192    9.999   .     S
V184     V196    10.001   .     S
V184     V202    10.001   .     S
V185     Er186    9.999   .     S
V185     V191    10.001   .     S
Er186     V191    9.999   .     S
Er186     Ce559    9.999   .     S
Ce187     Er564    9.999   .     S
Ce187     Ti189    10.0   .     S
Ce187     Ti188    10.0   .     S
Ti188     Ti189    9.999   .     S
Ti188     V191    10.0   .     S
Ti189     V190    10.0   .     S
V190     Er198    9.999   .     S
V190     V197    10.001   .     S
Er192     V196    9.999   .     S
Er192     Er204    10.001   .     S
Er192     Ce571    9.999   .     S
Ce193     Er570    9.999   .     S
Ce193     Ti194    10.0   .     S
Ce193     Ti195    10.0   .     S
Ti194     Ti195    9.999   .     S
Ti194     V196    10.0   .     S
Ti195     V197    10.0   .     S
V196     V208    10.001   .     S
V197     Er198    9.999   .     S
Er198     Ce565    9.999   .     S
Ce199     Er271    9.999   .     S
Ce199     Ti201    10.0   .     S
Ce199     Ti200    10.0   .     S
Ti200     Ti201    9.999   .     S
Ti200     V203    10.0   .     S
Ti201     V202    10.0   .     S
V202     Er204    9.999   .     S
V202     V208    10.001   .     S
V203     Er210    9.999   .     S
V203     V215    10.001   .     S
Er204     V208    9.999   .     S
Er204     Ce283    9.999   .     S
Ce205     Er288    9.999   .     S
Ce205     Ti207    10.0   .     S
Ce205     Ti206    10.0   .     S
Ti206     Ti207    9.999   .     S
Ti206     V208    10.0   .     S
Ti207     V209    10.0   .     S
V209     Er216    9.999   .     S
V209     V214    10.001   .     S
Er210     V215    9.999   .     S
Er210     Ce272    9.999   .     S
Ce211     Er282    9.999   .     S
Ce211     Ti212    10.0   .     S
Ce211     Ti213    10.0   .     S
Ti212     Ti213    9.999   .     S
Ti212     V215    10.0   .     S
Ti213     V214    10.0   .     S
V214     Er216    9.999   .     S
Er216     Ce277    9.999   .     S
Er217     V232    9.999   .     S
Er217     V221    9.999   .     S
Er217     Er282    10.001   .     S
Ce218     Ti219    10.0   1_565     S
Ce218     Ti220    10.0   .     S
Ti219     Ce218    10.0   1_545     S
Ti219     Ti220    9.999   1_545     S
Ti219     V221    10.0   .     S
Ti220     Ti219    9.999   1_565     S
Ti220     V222    10.0   .     S
V221     V232    10.001   .     S
V221     V280    10.001   .     S
V222     Er223    9.999   .     S
V222     V228    10.001   .     S
V222     V239    10.001   .     S
Er223     V228    9.999   .     S
Er223     Er246    10.001   .     S
Ce224     Ti226    10.0   .     S
Ce224     Ti225    10.0   1_565     S
Ti225     Ce224    10.0   1_545     S
Ti225     Ti226    9.999   1_545     S
Ti225     V227    10.0   .     S
Ti226     Ti225    9.999   1_565     S
Ti226     V228    10.0   .     S
V227     Er234    9.999   .     S
V227     V233    10.001   .     S
V227     V269    10.001   .     S
V228     V245    10.001   .     S
Ce229     Ti230    10.0   .     S
Ce229     Ti231    10.0   .     S
Ti230     Ti231    9.999   .     S
Ti230     V233    10.0   .     S
Ti231     V232    10.0   .     S
V232     V275    10.001   .     S
V233     Er234    9.999   .     S
V233     V256    10.001   .     S
Er234     Er270    10.001   .     S
Ce235     Er343    9.999   .     S
Ce235     Ti237    10.0   .     S
Ce235     Ti236    10.0   1_565     S
Ti236     Ce235    10.0   1_545     S
Ti236     Ti237    9.999   1_545     S
Ti236     V238    10.0   .     S
Ti237     Ti236    9.999   1_565     S
Ti237     V239    10.0   .     S
V238     Er240    9.999   .     S
V238     V251    10.001   .     S
V238     V281    10.001   .     S
V239     Er246    9.999   .     S
V239     V245    10.001   .     S
Er240     V251    9.999   .     S
Er240     Er288    10.001   .     S
Er240     Ce350    9.999   .     S
Ce241     Er349    9.999   .     S
Ce241     Ti242    10.0   1_565     S
Ce241     Ti243    10.0   .     S
Ti242     Ce241    10.0   1_545     S
Ti242     Ti243    9.999   1_545     S
Ti242     V244    10.0   .     S
Ti243     Ti242    9.999   1_565     S
Ti243     V245    10.0   .     S
V244     Er252    9.999   .     S
V244     V250    10.001   .     S
V244     V268    10.001   .     S
V245     Er246    9.999   .     S
Er246     Ce344    9.999   .     S
Ce247     Er355    9.999   .     S
Ce247     Ti249    10.0   .     S
Ce247     Ti248    10.0   .     S
Ti248     Ti249    9.999   .     S
Ti248     V251    10.0   .     S
Ti249     V250    10.0   .     S
V250     Er252    9.999   .     S
V250     V262    10.001   .     S
V251     V286    10.001   .     S
Er252     Er264    10.001   .     S
Er252     Ce356    9.999   .     S
Ce253     Er474    9.999   .     S
Ce253     Ti255    10.0   .     S
Ce253     Ti254    10.0   .     S
Ti254     Ti255    9.999   .     S
Ti254     V256    10.0   .     S
Ti255     V257    10.0   .     S
V256     Er270    9.999   .     S
V256     V269    10.001   .     S
V257     Er258    9.999   .     S
V257     V263    10.001   .     S
V257     V276    10.001   .     S
Er258     V263    9.999   .     S
Er258     Er271    10.001   .     S
Er258     Ce469    9.999   .     S
Ce259     Er481    9.999   .     S
Ce259     Ti260    10.0   .     S
Ce259     Ti261    10.0   .     S
Ti260     Ti261    9.999   .     S
Ti260     V262    10.0   .     S
Ti261     V263    10.0   .     S
V262     Er264    9.999   .     S
V262     V268    10.001   .     S
V263     V287    10.001   .     S
Er264     V268    9.999   .     S
Er264     Ce482    9.999   .     S
Ce265     Er480    9.999   .     S
Ce265     Ti266    10.0   .     S
Ce265     Ti267    10.0   .     S
Ti266     Ti267    9.999   .     S
Ti266     V268    10.0   .     S
Ti267     V269    10.0   .     S
V269     Er270    9.999   .     S
Er270     Ce475    9.999   .     S
Er271     V287    9.999   .     S
Er271     V276    9.999   .     S
Ce272     Ti273    10.0   .     S
Ce272     Ti274    10.0   .     S
Ti273     Ti274    9.999   .     S
Ti273     V275    10.0   .     S
Ti274     V276    10.0   .     S
V275     Er282    9.999   .     S
V275     V280    10.001   .     S
V276     V287    10.001   .     S
Ce277     Ti279    10.0   .     S
Ce277     Ti278    10.0   .     S
Ti278     Ti279    9.999   .     S
Ti278     V280    10.0   .     S
Ti279     V281    10.0   .     S
V280     Er282    9.999   .     S
V281     Er288    9.999   .     S
V281     V286    10.001   .     S
Ce283     Ti285    10.0   .     S
Ce283     Ti284    10.0   .     S
Ti284     Ti285    9.999   .     S
Ti284     V286    10.0   .     S
Ti285     V287    10.0   .     S
V286     Er288    9.999   .     S
Er289     V299    9.999   .     S
Er289     V293    9.999   .     S
Er289     Er312    10.001   .     S
Er289     Ce427    9.999   .     S
Ce290     Er432    9.999   .     S
Ce290     Ti292    10.0   .     S
Ce290     Ti291    10.0   .     S
Ti291     Ti292    9.999   .     S
Ti291     V294    10.0   .     S
Ti292     V293    10.0   .     S
V293     V299    10.001   .     S
V293     V310    10.001   .     S
V294     Er295    9.999   .     S
V294     V305    10.001   .     S
V294     V348    10.001   .     S
Er295     V305    9.999   .     S
Er295     Er349    10.001   .     S
Er295     Ce415    9.999   .     S
Ce296     Er426    9.999   .     S
Ce296     Ti297    10.0   .     S
Ce296     Ti298    10.0   .     S
Ti297     Ti298    9.999   .     S
Ti297     V299    10.0   .     S
Ti298     V300    10.0   .     S
V299     V316    10.001   .     S
V300     Er306    9.999   .     S
V300     V304    10.001   .     S
V300     V340    10.001   .     S
Ce301     Er420    9.999   .     S
Ce301     Ti303    10.0   .     S
Ce301     Ti302    10.0   .     S
Ti302     Ti303    9.999   .     S
Ti302     V304    10.0   .     S
Ti303     V305    10.0   .     S
V304     Er306    9.999   .     S
V304     V328    10.001   .     S
V305     V359    10.001   .     S
Er306     Er336    10.001   .     S
Er306     Ce421    9.999   .     S
Ce307     Er541    9.999   .     S
Ce307     Ti309    10.0   .     S
Ce307     Ti308    10.0   .     S
Ti308     Ti309    9.999   .     S
Ti308     V310    10.0   .     S
Ti309     V311    10.0   .     S
V310     Er312    9.999   .     S
V310     V316    10.001   .     S
V311     Er318    9.999   .     S
V311     V323    10.001   .     S
V311     V347    10.001   .     S
Er312     V316    9.999   .     S
Er312     Ce542    9.999   .     S
Ce313     Er547    9.999   .     S
Ce313     Ti315    10.0   .     S
Ce313     Ti314    10.0   .     S
Ti314     Ti315    9.999   .     S
Ti314     V316    10.0   .     S
Ti315     V317    10.0   .     S
V317     Er324    9.999   .     S
V317     V322    10.001   .     S
V317     V341    10.001   .     S
Er318     V323    9.999   .     S
Er318     Er343    10.001   .     S
Er318     Ce548    9.999   .     S
Ce319     Er558    9.999   .     S
Ce319     Ti320    10.0   .     S
Ce319     Ti321    10.0   .     S
Ti320     Ti321    9.999   .     S
Ti320     V323    10.0   .     S
Ti321     V322    10.0   .     S
V322     Er324    9.999   .     S
V322     V334    10.001   .     S
V323     V353    10.001   .     S
Er324     Er342    10.001   .     S
Er324     Ce553    9.999   .     S
Ce325     Ti327    10.0   1_545     S
Ce325     Ti326    10.0   .     S
Ti326     Ti327    9.999   1_545     S
Ti326     V329    10.0   .     S
Ti327     Ce325    10.0   1_565     S
Ti327     Ti326    9.999   1_565     S
Ti327     V328    10.0   .     S
V328     Er336    9.999   .     S
V328     V340    10.001   .     S
V329     Er330    9.999   .     S
V329     V335    10.001   .     S
V329     V360    10.001   .     S
Er330     V335    9.999   .     S
Er330     Er355    10.001   .     S
Ce331     Ti332    10.0   .     S
Ce331     Ti333    10.0   1_545     S
Ti332     Ti333    9.999   1_545     S
Ti332     V335    10.0   .     S
Ti333     Ce331    10.0   1_565     S
Ti333     Ti332    9.999   1_565     S
Ti333     V334    10.0   .     S
V334     Er342    9.999   .     S
V334     V341    10.001   .     S
V335     V354    10.001   .     S
Er336     V340    9.999   .     S
Ce337     Ti339    10.0   .     S
Ce337     Ti338    10.0   .     S
Ti338     Ti339    9.999   .     S
Ti338     V340    10.0   .     S
Ti339     V341    10.0   .     S
V341     Er342    9.999   .     S
Er343     V353    9.999   .     S
Er343     V347    9.999   .     S
Ce344     Ti345    10.0   .     S
Ce344     Ti346    10.0   .     S
Ti345     Ti346    9.999   .     S
Ti345     V347    10.0   .     S
Ti346     V348    10.0   .     S
V347     V353    10.001   .     S
V348     Er349    9.999   .     S
V348     V359    10.001   .     S
Er349     V359    9.999   .     S
Ce350     Ti352    10.0   1_545     S
Ce350     Ti351    10.0   .     S
Ti351     Ti352    9.999   1_545     S
Ti351     V354    10.0   .     S
Ti352     Ce350    10.0   1_565     S
Ti352     Ti351    9.999   1_565     S
Ti352     V353    10.0   .     S
V354     Er355    9.999   .     S
V354     V360    10.001   .     S
Er355     V360    9.999   .     S
Ce356     Ti358    10.0   1_545     S
Ce356     Ti357    10.0   .     S
Ti357     Ti358    9.999   1_545     S
Ti357     V360    10.0   .     S
Ti358     Ce356    10.0   1_565     S
Ti358     Ti357    9.999   1_565     S
Ti358     V359    10.0   .     S
Ce361     Ti362    10.0   1_655     S
Ce361     Ti363    10.0   .     S
Ti362     Ce361    10.0   1_455     S
Ti362     Ti363    9.999   1_455     S
Ti362     V364    10.0   .     S
Ti363     Ti362    9.999   1_655     S
Ti363     V365    10.0   .     S
V364     Er366    9.999   .     S
V364     V376    10.001   .     S
V364     V413    10.001   .     S
V365     Er367    9.999   .     S
V365     V372    10.001   .     S
V365     V389    10.001   .     S
Er366     V376    9.999   .     S
Er366     Er414    10.001   .     S
Er367     V372    9.999   .     S
Er367     Er384    10.001   .     S
Ce368     Ti369    10.0   1_655     S
Ce368     Ti370    10.0   .     S
Ti369     Ce368    10.0   1_455     S
Ti369     Ti370    9.999   1_455     S
Ti369     V371    10.0   .     S
Ti370     Ti369    9.999   1_655     S
Ti370     V372    10.0   .     S
V371     Er378    9.999   .     S
V371     V377    10.001   .     S
V371     V425    10.001   .     S
V372     V383    10.001   .     S
Ce373     Ti374    10.0   .     S
Ce373     Ti375    10.0   .     S
Ti374     Ti375    9.999   .     S
Ti374     V377    10.0   .     S
Ti375     V376    10.0   .     S
V376     V407    10.001   .     S
V377     Er378    9.999   .     S
V377     V418    10.001   .     S
Er378     Er420    10.001   .     S
Ce379     Ti380    10.0   1_655     S
Ce379     Ti381    10.0   .     S
Ti380     Ce379    10.0   1_455     S
Ti380     Ti381    9.999   1_455     S
Ti380     V382    10.0   .     S
Ti381     Ti380    9.999   1_655     S
Ti381     V383    10.0   .     S
V382     Er396    9.999   .     S
V382     V395    10.001   .     S
V382     V424    10.001   .     S
V383     Er384    9.999   .     S
V383     V389    10.001   .     S
Er384     V389    9.999   .     S
Ce385     Ti386    10.0   1_655     S
Ce385     Ti387    10.0   .     S
Ti386     Ce385    10.0   1_455     S
Ti386     Ti387    9.999   1_455     S
Ti386     V388    10.0   .     S
Ti387     Ti386    9.999   1_655     S
Ti387     V389    10.0   .     S
V388     Er390    9.999   .     S
V388     V394    10.001   .     S
V388     V412    10.001   .     S
Er390     V394    9.999   .     S
Er390     Er403    10.001   .     S
Ce391     Ti392    10.0   .     S
Ce391     Ti393    10.0   .     S
Ti392     Ti393    9.999   .     S
Ti392     V394    10.0   .     S
Ti393     V395    10.0   .     S
V394     V401    10.001   .     S
V395     Er396    9.999   .     S
V395     V430    10.001   .     S
Er396     Er426    10.001   .     S
Er397     V402    9.999   .     S
Er397     V408    9.999   .     S
Er397     Er432    10.001   .     S
Er397     Ce487    9.999   .     S
Ce398     Er492    9.999   .     S
Ce398     Ti399    10.0   .     S
Ce398     Ti400    10.0   .     S
Ti399     Ti400    9.999   .     S
Ti399     V401    10.0   .     S
Ti400     V402    10.0   .     S
V401     Er403    9.999   .     S
V401     V412    10.001   .     S
V402     V408    10.001   .     S
V402     V431    10.001   .     S
Er403     V412    9.999   .     S
Er403     Ce493    9.999   .     S
Ce404     Er504    9.999   .     S
Ce404     Ti406    10.0   .     S
Ce404     Ti405    10.0   .     S
Ti405     Ti406    9.999   .     S
Ti405     V407    10.0   .     S
Ti406     V408    10.0   .     S
V407     Er414    9.999   .     S
V407     V413    10.001   .     S
V408     V419    10.001   .     S
Ce409     Er498    9.999   .     S
Ce409     Ti410    10.0   .     S
Ce409     Ti411    10.0   .     S
Ti410     Ti411    9.999   .     S
Ti410     V413    10.0   .     S
Ti411     V412    10.0   .     S
V413     Er414    9.999   .     S
Er414     Ce499    9.999   .     S
Ce415     Ti417    10.0   .     S
Ce415     Ti416    10.0   .     S
Ti416     Ti417    9.999   .     S
Ti416     V418    10.0   .     S
Ti417     V419    10.0   .     S
V418     Er420    9.999   .     S
V418     V425    10.001   .     S
V419     Er432    9.999   .     S
V419     V431    10.001   .     S
Er420     V425    9.999   .     S
Ce421     Ti423    10.0   .     S
Ce421     Ti422    10.0   .     S
Ti422     Ti423    9.999   .     S
Ti422     V425    10.0   .     S
Ti423     V424    10.0   .     S
V424     Er426    9.999   .     S
V424     V430    10.001   .     S
Er426     V430    9.999   .     S
Ce427     Ti429    10.0   .     S
Ce427     Ti428    10.0   .     S
Ti428     Ti429    9.999   .     S
Ti428     V430    10.0   .     S
Ti429     V431    10.0   .     S
V431     Er432    9.999   .     S
Ce433     Ti435    10.0   .     S
Ce433     Ti434    10.0   1_554     S
Ti434     Ce433    10.0   1_556     S
Ti434     Ti435    9.999   1_556     S
Ti434     V436    10.0   .     S
Ti435     Ti434    9.999   1_554     S
Ti435     V437    10.0   .     S
V436     Er444    9.999   .     S
V436     V448    10.001   .     S
V436     V478    10.001   .     S
V437     Er438    9.999   .     S
V437     V443    10.001   .     S
V437     V467    10.001   .     S
Er438     V443    9.999   .     S
Er438     Er468    10.001   .     S
Ce439     Ti440    10.0   .     S
Ce439     Ti441    10.0   1_554     S
Ti440     Ti441    9.999   1_554     S
Ti440     V443    10.0   .     S
Ti441     Ce439    10.0   1_556     S
Ti441     Ti440    9.999   1_556     S
Ti441     V442    10.0   .     S
V442     Er450    9.999   .     S
V442     V449    10.001   .     S
V442     V503    10.001   .     S
V443     V455    10.001   .     S
Er444     V448    9.999   .     S
Er444     Er480    10.001   .     S
Ce445     Ti446    10.0   .     S
Ce445     Ti447    10.0   .     S
Ti446     Ti447    9.999   .     S
Ti446     V448    10.0   .     S
Ti447     V449    10.0   .     S
V448     V485    10.001   .     S
V449     Er450    9.999   .     S
V449     V497    10.001   .     S
Er450     Er498    10.001   .     S
Ce451     Er511    9.999   .     S
Ce451     Ti453    10.0   .     S
Ce451     Ti452    10.0   1_554     S
Ti452     Ce451    10.0   1_556     S
Ti452     Ti453    9.999   1_556     S
Ti452     V454    10.0   .     S
Ti453     Ti452    9.999   1_554     S
Ti453     V455    10.0   .     S
V454     Er461    9.999   .     S
V454     V459    10.001   .     S
V454     V502    10.001   .     S
V455     Er468    9.999   .     S
V455     V467    10.001   .     S
Ce456     Er522    9.999   .     S
Ce456     Ti458    10.0   .     S
Ce456     Ti457    10.0   .     S
Ti457     Ti458    9.999   .     S
Ti457     V459    10.0   .     S
Ti458     V460    10.0   .     S
V459     Er461    9.999   .     S
V459     V491    10.001   .     S
V460     Er462    9.999   .     S
V460     V466    10.001   .     S
V460     V473    10.001   .     S
Er461     Er504    10.001   .     S
Er461     Ce512    9.999   .     S
Er462     V466    9.999   .     S
Er462     Er474    10.001   .     S
Er462     Ce517    9.999   .     S
Ce463     Er510    9.999   .     S
Ce463     Ti464    10.0   1_554     S
Ce463     Ti465    10.0   .     S
Ti464     Ce463    10.0   1_556     S
Ti464     Ti465    9.999   1_556     S
Ti464     V466    10.0   .     S
Ti465     Ti464    9.999   1_554     S
Ti465     V467    10.0   .     S
V466     V479    10.001   .     S
V467     Er468    9.999   .     S
Er468     Ce505    9.999   .     S
Ce469     Ti471    10.0   .     S
Ce469     Ti470    10.0   .     S
Ti470     Ti471    9.999   .     S
Ti470     V472    10.0   .     S
Ti471     V473    10.0   .     S
V472     Er481    9.999   .     S
V472     V486    10.001   .     S
V472     V490    10.001   .     S
V473     Er474    9.999   .     S
V473     V479    10.001   .     S
Er474     V479    9.999   .     S
Ce475     Ti477    10.0   .     S
Ce475     Ti476    10.0   .     S
Ti476     Ti477    9.999   .     S
Ti476     V478    10.0   .     S
Ti477     V479    10.0   .     S
V478     Er480    9.999   .     S
V478     V485    10.001   .     S
Er480     V485    9.999   .     S
Er481     V486    9.999   .     S
Er481     Er492    10.001   .     S
Ce482     Ti483    10.0   .     S
Ce482     Ti484    10.0   .     S
Ti483     Ti484    9.999   .     S
Ti483     V486    10.0   .     S
Ti484     V485    10.0   .     S
V486     V496    10.001   .     S
Ce487     Ti489    10.0   .     S
Ce487     Ti488    10.0   .     S
Ti488     Ti489    9.999   .     S
Ti488     V490    10.0   .     S
Ti489     V491    10.0   .     S
V490     Er492    9.999   .     S
V490     V496    10.001   .     S
V491     Er504    9.999   .     S
V491     V502    10.001   .     S
Er492     V496    9.999   .     S
Ce493     Ti495    10.0   .     S
Ce493     Ti494    10.0   .     S
Ti494     Ti495    9.999   .     S
Ti494     V496    10.0   .     S
Ti495     V497    10.0   .     S
V497     Er498    9.999   .     S
V497     V503    10.001   .     S
Er498     V503    9.999   .     S
Ce499     Ti500    10.0   .     S
Ce499     Ti501    10.0   .     S
Ti500     Ti501    9.999   .     S
Ti500     V502    10.0   .     S
Ti501     V503    10.0   .     S
V502     Er504    9.999   .     S
Ce505     Ti507    10.0   .     S
Ce505     Ti506    10.0   .     S
Ti506     Ti507    9.999   .     S
Ti506     V508    10.0   .     S
Ti507     V509    10.0   .     S
V508     Er510    9.999   .     S
V508     V520    10.001   .     S
V508     V574    10.001   .     S
V509     Er511    9.999   .     S
V509     V515    10.001   .     S
V509     V545    10.001   .     S
Er510     V520    9.999   .     S
Er510     Er570    10.001   .     S
Er511     V515    9.999   .     S
Er511     Er547    10.001   .     S
Ce512     Ti513    10.0   1_556     S
Ce512     Ti514    10.0   .     S
Ti513     Ce512    10.0   1_554     S
Ti513     Ti514    9.999   1_554     S
Ti513     V515    10.0   .     S
Ti514     Ti513    9.999   1_556     S
Ti514     V516    10.0   .     S
V515     V557    10.001   .     S
V516     Er522    9.999   .     S
V516     V521    10.001   .     S
V516     V534    10.001   .     S
Ce517     Ti518    10.0   1_556     S
Ce517     Ti519    10.0   .     S
Ti518     Ce517    10.0   1_554     S
Ti518     Ti519    9.999   1_554     S
Ti518     V520    10.0   .     S
Ti519     Ti518    9.999   1_556     S
Ti519     V521    10.0   .     S
V520     V568    10.001   .     S
V521     Er522    9.999   .     S
V521     V539    10.001   .     S
Er522     Er540    10.001   .     S
Er523     V527    9.999   .     S
Er523     V533    9.999   .     S
Er523     Er558    10.001   .     S
Ce524     Ti525    10.0   .     S
Ce524     Ti526    10.0   .     S
Ti525     Ti526    9.999   .     S
Ti525     V528    10.0   .     S
Ti526     V527    10.0   .     S
V527     V533    10.001   .     S
V527     V551    10.001   .     S
V528     Er529    9.999   .     S
V528     V538    10.001   .     S
V528     V562    10.001   .     S
Er529     V538    9.999   .     S
Er529     Er564    10.001   .     S
Ce530     Ti532    10.0   .     S
Ce530     Ti531    10.0   1_556     S
Ti531     Ce530    10.0   1_554     S
Ti531     Ti532    9.999   1_554     S
Ti531     V533    10.0   .     S
Ti532     Ti531    9.999   1_556     S
Ti532     V534    10.0   .     S
V533     V556    10.001   .     S
V534     Er540    9.999   .     S
V534     V539    10.001   .     S
Ce535     Ti537    10.0   .     S
Ce535     Ti536    10.0   1_556     S
Ti536     Ce535    10.0   1_554     S
Ti536     Ti537    9.999   1_554     S
Ti536     V538    10.0   .     S
Ti537     Ti536    9.999   1_556     S
Ti537     V539    10.0   .     S
V538     V569    10.001   .     S
V539     Er540    9.999   .     S
Er541     V552    9.999   .     S
Er541     V546    9.999   .     S
Er541     Er576    10.001   .     S
Ce542     Ti543    10.0   .     S
Ce542     Ti544    10.0   .     S
Ti543     Ti544    9.999   .     S
Ti543     V545    10.0   .     S
Ti544     V546    10.0   .     S
V545     Er547    9.999   .     S
V545     V557    10.001   .     S
V546     V552    10.001   .     S
V546     V575    10.001   .     S
Er547     V557    9.999   .     S
Ce548     Ti549    10.0   .     S
Ce548     Ti550    10.0   .     S
Ti549     Ti550    9.999   .     S
Ti549     V551    10.0   .     S
Ti550     V552    10.0   .     S
V551     Er558    9.999   .     S
V551     V556    10.001   .     S
V552     V563    10.001   .     S
Ce553     Ti555    10.0   .     S
Ce553     Ti554    10.0   .     S
Ti554     Ti555    9.999   .     S
Ti554     V556    10.0   .     S
Ti555     V557    10.0   .     S
V556     Er558    9.999   .     S
Ce559     Ti560    10.0   .     S
Ce559     Ti561    10.0   .     S
Ti560     Ti561    9.999   .     S
Ti560     V562    10.0   .     S
Ti561     V563    10.0   .     S
V562     Er564    9.999   .     S
V562     V569    10.001   .     S
V563     Er576    9.999   .     S
V563     V575    10.001   .     S
Er564     V569    9.999   .     S
Ce565     Ti566    10.0   .     S
Ce565     Ti567    10.0   .     S
Ti566     Ti567    9.999   .     S
Ti566     V568    10.0   .     S
Ti567     V569    10.0   .     S
V568     Er570    9.999   .     S
V568     V574    10.001   .     S
Er570     V574    9.999   .     S
Ce571     Ti572    10.0   .     S
Ce571     Ti573    10.0   .     S
Ti572     Ti573    9.999   .     S
Ti572     V574    10.0   .     S
Ti573     V575    10.0   .     S
V575     Er576    9.999   .     S
