data_yff
_audit_creation_date              2020-02-02
_audit_creation_method            'Pymatgen'
_symmetry_space_group_name_H-M    'P1'
_symmetry_Int_Tables_number       1
loop_
_symmetry_equiv_pos_as_xyz
  x,y,z
_cell_length_a                    38.18
_cell_length_b                    38.18
_cell_length_c                    17.7698
_cell_angle_alpha                 90.0
_cell_angle_beta                 90.0
_cell_angle_gamma                 90.0
loop_
_atom_site_label
_atom_site_type_symbol
_atom_site_fract_x
_atom_site_fract_y
_atom_site_fract_z
V1     V     0.119   0.466   0.4084
V2     V     0.881   0.534   0.5916
V3     V     0.034   0.381   0.9084
V4     V     0.966   0.619   0.0917
V5     V     0.381   0.466   0.4084
V6     V     0.619   0.534   0.5916
V7     V     0.466   0.381   0.9084
V8     V     0.534   0.619   0.0916
V9     V     0.119   0.034   0.4084
V10     V     0.881   0.966   0.5916
V11     V     0.034   0.119   0.9084
V12     V     0.966   0.881   0.0916
V13     V     0.381   0.034   0.4084
V14     V     0.619   0.966   0.5916
V15     V     0.466   0.119   0.9084
V16     V     0.534   0.881   0.0917
loop_
_geom_bond_atom_site_label_1
_geom_bond_atom_site_label_2
_geom_bond_distance
_geom_bond_site_symmetry_2
_ccdc_geom_bond_type
V1     V2    10.0   1_455     S
V1     V4    10.0   1_455     S
V1     V3    10.0   .     S
V1     V3    10.0   1_554     S
V1     V5    10.0   .     S
V2     V1    10.0   1_655     S
V2     V3    10.0   1_655     S
V2     V4    10.0   1_556     S
V2     V4    10.0   .     S
V2     V6    10.0   .     S
V3     V4    10.0   1_456     S
V3     V2    10.0   1_455     S
V3     V1    10.0   1_556     S
V3     V11    10.0   .     S
V4     V1    10.0   1_655     S
V4     V3    10.0   1_654     S
V4     V2    10.0   1_554     S
V4     V12    10.0   .     S
V5     V6    10.0   .     S
V5     V8    10.0   .     S
V5     V7    10.0   .     S
V5     V7    10.0   1_554     S
V6     V7    10.0   .     S
V6     V8    10.0   .     S
V6     V8    10.0   1_556     S
V7     V8    10.0   1_556     S
V7     V5    10.0   1_556     S
V7     V15    10.0   .     S
V8     V7    10.0   1_554     S
V8     V6    10.0   1_554     S
V8     V16    10.0   .     S
V9     V10    10.0   1_445     S
V9     V12    10.0   1_445     S
V9     V11    10.0   .     S
V9     V11    10.0   1_554     S
V9     V13    10.0   .     S
V10     V9    10.0   1_665     S
V10     V11    10.0   1_665     S
V10     V12    10.0   .     S
V10     V12    10.0   1_556     S
V10     V14    10.0   .     S
V11     V12    10.0   1_446     S
V11     V10    10.0   1_445     S
V11     V9    10.0   1_556     S
V12     V9    10.0   1_665     S
V12     V11    10.0   1_664     S
V12     V10    10.0   1_554     S
V13     V14    10.0   1_545     S
V13     V16    10.0   1_545     S
V13     V15    10.0   .     S
V13     V15    10.0   1_554     S
V14     V13    10.0   1_565     S
V14     V15    10.0   1_565     S
V14     V16    10.0   .     S
V14     V16    10.0   1_556     S
V15     V16    10.0   1_546     S
V15     V14    10.0   1_545     S
V15     V13    10.0   1_556     S
V16     V15    10.0   1_564     S
V16     V13    10.0   1_565     S
V16     V14    10.0   1_554     S
