data_yfl
_audit_creation_date              2020-02-02
_audit_creation_method            'Pymatgen'
_symmetry_space_group_name_H-M    'P1'
_symmetry_Int_Tables_number       1
loop_
_symmetry_equiv_pos_as_xyz
  x,y,z
_cell_length_a                    18.955
_cell_length_b                    18.955
_cell_length_c                    59.389
_cell_angle_alpha                 90.0
_cell_angle_beta                 90.0
_cell_angle_gamma                 90.0
loop_
_atom_site_label
_atom_site_type_symbol
_atom_site_fract_x
_atom_site_fract_y
_atom_site_fract_z
V1     V     0.0842   0.25   0.9405
V2     V     0.9158   0.75   0.9405
V3     V     0.25   0.9158   0.0595
V4     V     0.75   0.0842   0.0595
V5     V     0.75   0.0842   0.6905
V6     V     0.4158   0.25   0.8095
V7     V     0.5841   0.75   0.8095
V8     V     0.25   0.9158   0.6905
V9     V     0.5841   0.75   0.4405
V10     V     0.25   0.5841   0.5595
V11     V     0.75   0.4158   0.5595
V12     V     0.4158   0.25   0.4405
V13     V     0.9158   0.75   0.3095
V14     V     0.75   0.4158   0.1905
V15     V     0.0842   0.25   0.3095
V16     V     0.25   0.5841   0.1905
loop_
_geom_bond_atom_site_label_1
_geom_bond_atom_site_label_2
_geom_bond_distance
_geom_bond_site_symmetry_2
_ccdc_geom_bond_type
V1     V4    10.0   1_456     S
V1     V3    10.0   1_546     S
V1     V2    10.0   1_445     S
V1     V2    10.0   1_455     S
V1     V6    10.0   .     S
V2     V3    10.0   1_656     S
V2     V4    10.0   1_566     S
V2     V1    10.0   1_665     S
V2     V1    10.0   1_655     S
V2     V7    10.0   .     S
V3     V2    10.0   1_454     S
V3     V1    10.0   1_564     S
V3     V4    10.0   1_465     S
V3     V4    10.0   1_565     S
V3     V16    10.0   .     S
V4     V1    10.0   1_654     S
V4     V2    10.0   1_544     S
V4     V3    10.0   1_645     S
V4     V3    10.0   1_545     S
V4     V14    10.0   .     S
V5     V7    10.0   1_545     S
V5     V6    10.0   .     S
V5     V8    10.0   1_545     S
V5     V8    10.0   1_645     S
V5     V11    10.0   .     S
V6     V8    10.0   1_545     S
V6     V7    10.0   1_545     S
V6     V7    10.0   .     S
V7     V5    10.0   1_565     S
V7     V8    10.0   .     S
V7     V6    10.0   1_565     S
V8     V6    10.0   1_565     S
V8     V5    10.0   1_565     S
V8     V5    10.0   1_465     S
V8     V10    10.0   .     S
V9     V10    10.0   .     S
V9     V11    10.0   .     S
V9     V12    10.0   .     S
V9     V12    10.0   1_565     S
V9     V13    10.0   .     S
V10     V12    10.0   .     S
V10     V11    10.0   .     S
V10     V11    10.0   1_455     S
V11     V12    10.0   .     S
V11     V10    10.0   1_655     S
V12     V9    10.0   1_545     S
V12     V15    10.0   .     S
V13     V16    10.0   1_655     S
V13     V14    10.0   .     S
V13     V15    10.0   1_655     S
V13     V15    10.0   1_665     S
V14     V15    10.0   1_655     S
V14     V16    10.0   1_655     S
V14     V16    10.0   .     S
V15     V14    10.0   1_455     S
V15     V16    10.0   .     S
V15     V13    10.0   1_455     S
V15     V13    10.0   1_445     S
V16     V13    10.0   1_455     S
V16     V14    10.0   1_455     S
