data_yfu
_audit_creation_date              2020-02-02
_audit_creation_method            'Pymatgen'
_symmetry_space_group_name_H-M    'P1'
_symmetry_Int_Tables_number       1
loop_
_symmetry_equiv_pos_as_xyz
  x,y,z
_cell_length_a                    23.9845
_cell_length_b                    23.9845
_cell_length_c                    65.0362
_cell_angle_alpha                 90.0
_cell_angle_beta                 90.0
_cell_angle_gamma                 90.0
loop_
_atom_site_label
_atom_site_type_symbol
_atom_site_fract_x
_atom_site_fract_y
_atom_site_fract_z
V1     V     0.6677   0.8738   0.9294
V2     V     0.8762   0.0823   0.8206
V3     V     0.1677   0.1262   0.9294
V4     V     0.3762   0.9177   0.8206
V5     V     0.6238   0.5823   0.8206
V6     V     0.8323   0.3738   0.9294
V7     V     0.1238   0.4177   0.8206
V8     V     0.3323   0.6262   0.9294
V9     V     0.6677   0.1262   0.5706
V10     V     0.8762   0.9177   0.6794
V11     V     0.1677   0.8738   0.5706
V12     V     0.3762   0.0823   0.6794
V13     V     0.6238   0.4177   0.6794
V14     V     0.8323   0.6262   0.5706
V15     V     0.1238   0.5823   0.6794
V16     V     0.3323   0.3738   0.5706
V17     V     0.6677   0.3738   0.0706
V18     V     0.8762   0.5823   0.1794
V19     V     0.1677   0.6262   0.0706
V20     V     0.3762   0.4177   0.1794
V21     V     0.3323   0.1262   0.0706
V22     V     0.1238   0.9177   0.1794
V23     V     0.8323   0.8738   0.0706
V24     V     0.6238   0.0823   0.1794
V25     V     0.8323   0.1262   0.4294
V26     V     0.6238   0.9177   0.3206
V27     V     0.3323   0.8738   0.4294
V28     V     0.1238   0.0823   0.3206
V29     V     0.3762   0.5823   0.3206
V30     V     0.1677   0.3738   0.4294
V31     V     0.6677   0.6262   0.4294
V32     V     0.8762   0.4177   0.3206
loop_
_geom_bond_atom_site_label_1
_geom_bond_atom_site_label_2
_geom_bond_distance
_geom_bond_site_symmetry_2
_ccdc_geom_bond_type
V1     V4    10.0   .     S
V1     V2    10.0   1_565     S
V1     V5    10.0   .     S
V1     V8    10.0   .     S
V1     V23    10.0   1_556     S
V2     V6    10.0   .     S
V2     V1    10.0   1_545     S
V2     V3    10.0   1_655     S
V2     V7    10.0   1_655     S
V2     V10    10.0   1_545     S
V3     V2    10.0   1_455     S
V3     V4    10.0   1_545     S
V3     V7    10.0   .     S
V3     V6    10.0   1_455     S
V3     V21    10.0   1_556     S
V4     V8    10.0   .     S
V4     V3    10.0   1_565     S
V4     V5    10.0   .     S
V4     V12    10.0   1_565     S
V5     V6    10.0   .     S
V5     V8    10.0   .     S
V5     V13    10.0   .     S
V6     V7    10.0   1_655     S
V6     V3    10.0   1_655     S
V6     V17    10.0   1_556     S
V7     V6    10.0   1_455     S
V7     V8    10.0   .     S
V7     V2    10.0   1_455     S
V7     V15    10.0   .     S
V8     V19    10.0   1_556     S
V9     V12    10.0   .     S
V9     V10    10.0   1_545     S
V9     V13    10.0   .     S
V9     V16    10.0   .     S
V9     V25    10.0   .     S
V10     V14    10.0   .     S
V10     V9    10.0   1_565     S
V10     V11    10.0   1_655     S
V10     V15    10.0   1_655     S
V10     V2    10.0   1_565     S
V11     V10    10.0   1_455     S
V11     V12    10.0   1_565     S
V11     V15    10.0   .     S
V11     V14    10.0   1_455     S
V11     V27    10.0   .     S
V12     V16    10.0   .     S
V12     V11    10.0   1_545     S
V12     V13    10.0   .     S
V12     V4    10.0   1_545     S
V13     V14    10.0   .     S
V13     V16    10.0   .     S
V14     V15    10.0   1_655     S
V14     V11    10.0   1_655     S
V14     V31    10.0   .     S
V15     V14    10.0   1_455     S
V15     V16    10.0   .     S
V15     V10    10.0   1_455     S
V16     V30    10.0   .     S
V17     V20    10.0   .     S
V17     V18    10.0   .     S
V17     V24    10.0   .     S
V17     V21    10.0   .     S
V17     V6    10.0   1_554     S
V18     V23    10.0   .     S
V18     V19    10.0   1_655     S
V18     V22    10.0   1_655     S
V18     V32    10.0   .     S
V19     V18    10.0   1_455     S
V19     V20    10.0   .     S
V19     V22    10.0   .     S
V19     V23    10.0   1_455     S
V19     V8    10.0   1_554     S
V20     V21    10.0   .     S
V20     V24    10.0   .     S
V20     V29    10.0   .     S
V21     V24    10.0   .     S
V21     V22    10.0   1_545     S
V21     V3    10.0   1_554     S
V22     V21    10.0   1_565     S
V22     V23    10.0   1_455     S
V22     V18    10.0   1_455     S
V22     V28    10.0   1_565     S
V23     V22    10.0   1_655     S
V23     V24    10.0   1_565     S
V23     V19    10.0   1_655     S
V23     V1    10.0   1_554     S
V24     V23    10.0   1_545     S
V24     V26    10.0   1_545     S
V25     V28    10.0   1_655     S
V25     V26    10.0   1_545     S
V25     V32    10.0   .     S
V25     V30    10.0   1_655     S
V26     V31    10.0   .     S
V26     V25    10.0   1_565     S
V26     V27    10.0   .     S
V26     V29    10.0   .     S
V26     V24    10.0   1_565     S
V27     V28    10.0   1_565     S
V27     V29    10.0   .     S
V27     V31    10.0   .     S
V28     V25    10.0   1_455     S
V28     V30    10.0   .     S
V28     V27    10.0   1_545     S
V28     V32    10.0   1_455     S
V28     V22    10.0   1_545     S
V29     V30    10.0   .     S
V29     V31    10.0   .     S
V30     V32    10.0   1_455     S
V30     V25    10.0   1_455     S
V31     V32    10.0   .     S
V32     V30    10.0   1_655     S
V32     V28    10.0   1_655     S
