data_yfy
_audit_creation_date              2020-02-02
_audit_creation_method            'Pymatgen'
_symmetry_space_group_name_H-M    'P1'
_symmetry_Int_Tables_number       1
loop_
_symmetry_equiv_pos_as_xyz
  x,y,z
_cell_length_a                    26.201
_cell_length_b                    26.201
_cell_length_c                    30.4482
_cell_angle_alpha                 90.0
_cell_angle_beta                 90.0
_cell_angle_gamma                 90.0
loop_
_atom_site_label
_atom_site_type_symbol
_atom_site_fract_x
_atom_site_fract_y
_atom_site_fract_z
V1     V     0.7301   0.0   0.3358
V2     V     0.7301   0.0   0.6642
V3     V     0.5   0.2301   0.8358
V4     V     0.5   0.2301   0.1642
V5     V     0.5   0.7699   0.1642
V6     V     0.5   0.7699   0.8358
V7     V     0.2699   0.0   0.3358
V8     V     0.2699   0.0   0.6642
V9     V     0.7699   0.5   0.1642
V10     V     0.7699   0.5   0.8358
V11     V     0.0   0.7301   0.6642
V12     V     0.0   0.7301   0.3358
V13     V     0.2301   0.5   0.1642
V14     V     0.2301   0.5   0.8358
V15     V     0.0   0.2699   0.3358
V16     V     0.0   0.2699   0.6642
loop_
_geom_bond_atom_site_label_1
_geom_bond_atom_site_label_2
_geom_bond_distance
_geom_bond_site_symmetry_2
_ccdc_geom_bond_type
V1     V2    10.0   .     S
V1     V4    10.0   .     S
V1     V5    10.0   1_545     S
V1     V15    10.0   1_655     S
V1     V12    10.0   1_645     S
V2     V6    10.0   1_545     S
V2     V3    10.0   .     S
V2     V16    10.0   1_655     S
V2     V11    10.0   1_645     S
V3     V4    10.0   1_556     S
V3     V8    10.0   .     S
V3     V10    10.0   .     S
V3     V14    10.0   .     S
V4     V3    10.0   1_554     S
V4     V7    10.0   .     S
V4     V9    10.0   .     S
V4     V13    10.0   .     S
V5     V6    10.0   1_554     S
V5     V7    10.0   1_565     S
V5     V1    10.0   1_565     S
V5     V13    10.0   .     S
V5     V9    10.0   .     S
V6     V5    10.0   1_556     S
V6     V2    10.0   1_565     S
V6     V8    10.0   1_565     S
V6     V14    10.0   .     S
V6     V10    10.0   .     S
V7     V8    10.0   .     S
V7     V5    10.0   1_545     S
V7     V12    10.0   1_545     S
V7     V15    10.0   .     S
V8     V6    10.0   1_545     S
V8     V11    10.0   1_545     S
V8     V16    10.0   .     S
V9     V10    10.0   1_554     S
V9     V12    10.0   1_655     S
V9     V15    10.0   1_655     S
V10     V9    10.0   1_556     S
V10     V16    10.0   1_655     S
V10     V11    10.0   1_655     S
V11     V12    10.0   .     S
V11     V14    10.0   .     S
V11     V10    10.0   1_455     S
V11     V8    10.0   1_565     S
V11     V2    10.0   1_465     S
V12     V9    10.0   1_455     S
V12     V13    10.0   .     S
V12     V7    10.0   1_565     S
V12     V1    10.0   1_465     S
V13     V14    10.0   1_554     S
V13     V15    10.0   .     S
V14     V13    10.0   1_556     S
V14     V16    10.0   .     S
V15     V1    10.0   1_455     S
V15     V16    10.0   .     S
V15     V9    10.0   1_455     S
V16     V2    10.0   1_455     S
V16     V10    10.0   1_455     S
