data_yyz
_audit_creation_date              2020-02-02
_audit_creation_method            'Pymatgen'
_symmetry_space_group_name_H-M    'P1'
_symmetry_Int_Tables_number       1
loop_
_symmetry_equiv_pos_as_xyz
  x,y,z
_cell_length_a                    13.6892
_cell_length_b                    13.6892
_cell_length_c                    42.5305
_cell_angle_alpha                 90.0
_cell_angle_beta                 90.0
_cell_angle_gamma                 120.0
loop_
_atom_site_label
_atom_site_type_symbol
_atom_site_fract_x
_atom_site_fract_y
_atom_site_fract_z
V1     V     0.4052   0.7157   0.8007
V2     V     0.3105   0.7157   0.6993
V3     V     0.6895   0.4052   0.9674
V4     V     0.5948   0.3105   0.8659
V5     V     0.7157   0.4052   0.5326
V6     V     0.7157   0.3105   0.6341
V7     V     0.3105   0.5948   0.4674
V8     V     0.4052   0.6895   0.3659
V9     V     0.2843   0.5948   0.0326
V10     V     0.2843   0.6895   0.1341
V11     V     0.5948   0.2843   0.3007
V12     V     0.6895   0.2843   0.1993
loop_
_geom_bond_atom_site_label_1
_geom_bond_atom_site_label_2
_geom_bond_distance
_geom_bond_site_symmetry_2
_ccdc_geom_bond_type
V1     V6    10.0   1_565     S
V1     V3    10.0   .     S
V1     V9    10.0   1_556     S
V1     V4    10.0   1_455     S
V2     V4    10.0   1_565     S
V2     V5    10.0   1_455     S
V2     V7    10.0   .     S
V2     V6    10.0   .     S
V3     V10    10.0   1_656     S
V3     V12    10.0   1_556     S
V3     V9    10.0   1_546     S
V4     V2    10.0   1_545     S
V4     V6    10.0   .     S
V4     V9    10.0   1_556     S
V4     V1    10.0   1_655     S
V5     V2    10.0   1_655     S
V5     V8    10.0   .     S
V5     V11    10.0   .     S
V5     V7    10.0   1_545     S
V6     V1    10.0   1_545     S
V6     V7    10.0   1_655     S
V7     V6    10.0   1_455     S
V7     V11    10.0   .     S
V7     V5    10.0   1_565     S
V8     V12    10.0   1_565     S
V8     V10    10.0   .     S
V8     V11    10.0   1_455     S
V9     V4    10.0   1_554     S
V9     V1    10.0   1_554     S
V9     V12    10.0   1_455     S
V9     V3    10.0   1_564     S
V10     V3    10.0   1_454     S
V10     V11    10.0   1_565     S
V10     V12    10.0   .     S
V11     V10    10.0   1_545     S
V11     V8    10.0   1_655     S
V12     V9    10.0   1_655     S
V12     V3    10.0   1_554     S
V12     V8    10.0   1_545     S
