data_zfl
_audit_creation_date              2020-02-02
_audit_creation_method            'Pymatgen'
_symmetry_space_group_name_H-M    'P1'
_symmetry_Int_Tables_number       1
loop_
_symmetry_equiv_pos_as_xyz
  x,y,z
_cell_length_a                    19.6389
_cell_length_b                    19.6389
_cell_length_c                    36.5271
_cell_angle_alpha                 90.0
_cell_angle_beta                 90.0
_cell_angle_gamma                 90.0
loop_
_atom_site_label
_atom_site_type_symbol
_atom_site_fract_x
_atom_site_fract_y
_atom_site_fract_z
V1     V     0.4052   0.9518   0.3756
V2     V     0.5948   0.0482   0.6244
V3     V     0.0948   0.5482   0.3756
V4     V     0.9052   0.4518   0.6244
V5     V     0.5948   0.4518   0.3756
V6     V     0.4052   0.5482   0.6244
V7     V     0.0948   0.9518   0.6244
V8     V     0.9052   0.0482   0.3756
V9     V     0.5482   0.4052   0.8756
V10     V     0.4518   0.5948   0.1244
V11     V     0.9518   0.0948   0.8756
V12     V     0.0482   0.9052   0.1244
V13     V     0.0482   0.5948   0.8756
V14     V     0.9518   0.4052   0.1244
V15     V     0.5482   0.0948   0.1244
V16     V     0.4518   0.9052   0.8756
loop_
_geom_bond_atom_site_label_1
_geom_bond_atom_site_label_2
_geom_bond_distance
_geom_bond_site_symmetry_2
_ccdc_geom_bond_type
V1     V2    10.0   1_565     S
V1     V3    10.0   .     S
V1     V8    10.0   1_465     S
V1     V8    10.0   1_565     S
V1     V15    10.0   1_565     S
V2     V1    10.0   1_545     S
V2     V4    10.0   .     S
V2     V7    10.0   1_545     S
V2     V7    10.0   1_645     S
V2     V16    10.0   1_545     S
V3     V4    10.0   1_455     S
V3     V5    10.0   .     S
V3     V5    10.0   1_455     S
V3     V14    10.0   1_455     S
V4     V3    10.0   1_655     S
V4     V6    10.0   .     S
V4     V6    10.0   1_655     S
V4     V13    10.0   1_655     S
V5     V6    10.0   .     S
V5     V8    10.0   .     S
V5     V3    10.0   1_655     S
V5     V10    10.0   .     S
V6     V7    10.0   .     S
V6     V4    10.0   1_455     S
V6     V9    10.0   .     S
V7     V8    10.0   1_465     S
V7     V2    10.0   1_565     S
V7     V2    10.0   1_465     S
V7     V11    10.0   1_465     S
V8     V1    10.0   1_645     S
V8     V7    10.0   1_645     S
V8     V1    10.0   1_545     S
V8     V12    10.0   1_645     S
V9     V10    10.0   1_556     S
V9     V11    10.0   .     S
V9     V16    10.0   .     S
V9     V16    10.0   1_545     S
V10     V9    10.0   1_554     S
V10     V12    10.0   .     S
V10     V15    10.0   .     S
V10     V15    10.0   1_565     S
V11     V12    10.0   1_646     S
V11     V13    10.0   1_655     S
V11     V13    10.0   1_645     S
V11     V7    10.0   1_645     S
V12     V11    10.0   1_464     S
V12     V14    10.0   1_455     S
V12     V14    10.0   1_465     S
V12     V8    10.0   1_465     S
V13     V11    10.0   1_455     S
V13     V11    10.0   1_465     S
V13     V14    10.0   1_456     S
V13     V16    10.0   .     S
V13     V4    10.0   1_455     S
V14     V12    10.0   1_655     S
V14     V13    10.0   1_654     S
V14     V15    10.0   .     S
V14     V12    10.0   1_645     S
V14     V3    10.0   1_655     S
V15     V16    10.0   1_544     S
V15     V10    10.0   1_545     S
V15     V1    10.0   1_545     S
V16     V15    10.0   1_566     S
V16     V9    10.0   1_565     S
V16     V2    10.0   1_565     S
