data_nfa
_audit_creation_date              2020-02-04
_audit_creation_method            'Pymatgen'
_symmetry_space_group_name_H-M    'P1'
_symmetry_Int_Tables_number       1
loop_
_symmetry_equiv_pos_as_xyz
  x,y,z
_cell_length_a                    28.2843
_cell_length_b                    28.2843
_cell_length_c                    28.2843
_cell_angle_alpha                 90.0
_cell_angle_beta                 90.0
_cell_angle_gamma                 90.0
loop_
_atom_site_label
_atom_site_type_symbol
_atom_site_fract_x
_atom_site_fract_y
_atom_site_fract_z
V1     V     0.125   0.375   0.375
V2     V     0.125   0.125   0.625
V3     V     0.875   0.125   0.875
V4     V     0.625   0.875   0.875
V5     V     0.375   0.625   0.375
V6     V     0.625   0.625   0.125
V7     V     0.125   0.625   0.125
V8     V     0.125   0.875   0.875
V9     V     0.875   0.875   0.625
V10     V     0.375   0.375   0.125
V11     V     0.625   0.375   0.375
V12     V     0.625   0.125   0.625
V13     V     0.625   0.875   0.375
V14     V     0.375   0.875   0.125
V15     V     0.375   0.625   0.875
V16     V     0.875   0.125   0.375
V17     V     0.125   0.375   0.875
V18     V     0.875   0.375   0.625
V19     V     0.375   0.375   0.625
V20     V     0.375   0.125   0.375
V21     V     0.625   0.125   0.125
V22     V     0.875   0.875   0.125
V23     V     0.125   0.625   0.625
V24     V     0.875   0.625   0.875
loop_
_geom_bond_atom_site_label_1
_geom_bond_atom_site_label_2
_geom_bond_distance
_geom_bond_site_symmetry_2
_ccdc_geom_bond_type
V1     V2    10.0   .     S
V1     V5    10.0   .     S
V1     V7    10.0   .     S
V1     V16    10.0   1_455     S
V2     V3    10.0   1_455     S
V2     V20    10.0   .     S
V2     V8    10.0   1_545     S
V3     V2    10.0   1_655     S
V3     V4    10.0   1_545     S
V3     V21    10.0   1_556     S
V3     V17    10.0   1_655     S
V4     V3    10.0   1_565     S
V4     V6    10.0   1_556     S
V4     V15    10.0   .     S
V4     V12    10.0   1_565     S
V5     V6    10.0   .     S
V5     V13    10.0   .     S
V5     V23    10.0   .     S
V6     V4    10.0   1_554     S
V6     V24    10.0   1_554     S
V6     V11    10.0   .     S
V7     V8    10.0   1_554     S
V7     V10    10.0   .     S
V7     V22    10.0   1_455     S
V8     V7    10.0   1_556     S
V8     V9    10.0   1_455     S
V8     V2    10.0   1_565     S
V8     V14    10.0   1_556     S
V9     V8    10.0   1_655     S
V9     V12    10.0   1_565     S
V9     V13    10.0   .     S
V9     V23    10.0   1_655     S
V10     V11    10.0   .     S
V10     V21    10.0   .     S
V10     V17    10.0   1_554     S
V11     V12    10.0   .     S
V11     V18    10.0   .     S
V12     V9    10.0   1_545     S
V12     V4    10.0   1_545     S
V12     V19    10.0   .     S
V13     V14    10.0   .     S
V13     V16    10.0   1_565     S
V14     V15    10.0   1_554     S
V14     V8    10.0   1_554     S
V14     V20    10.0   1_565     S
V15     V14    10.0   1_556     S
V15     V17    10.0   .     S
V15     V19    10.0   .     S
V16     V13    10.0   1_545     S
V16     V18    10.0   .     S
V16     V1    10.0   1_655     S
V16     V22    10.0   1_545     S
V17     V18    10.0   1_455     S
V17     V3    10.0   1_455     S
V17     V10    10.0   1_556     S
V18     V17    10.0   1_655     S
V18     V24    10.0   .     S
V19     V20    10.0   .     S
V19     V23    10.0   .     S
V20     V21    10.0   .     S
V20     V14    10.0   1_545     S
V21     V22    10.0   1_545     S
V21     V3    10.0   1_554     S
V22     V21    10.0   1_565     S
V22     V24    10.0   1_554     S
V22     V7    10.0   1_655     S
V22     V16    10.0   1_565     S
V23     V24    10.0   1_455     S
V23     V9    10.0   1_455     S
V24     V23    10.0   1_655     S
V24     V22    10.0   1_556     S
V24     V6    10.0   1_556     S
