data_krn
_audit_creation_date              2020-02-16
_audit_creation_method            'Pymatgen'
_symmetry_space_group_name_H-M    'P1'
_symmetry_Int_Tables_number       1
loop_
_symmetry_equiv_pos_as_xyz
  x,y,z
_cell_length_a                    37.3205
_cell_length_b                    37.3205
_cell_length_c                    20.0
_cell_angle_alpha                 90.0
_cell_angle_beta                 90.0
_cell_angle_gamma                 120.0
loop_
_atom_site_label
_atom_site_type_symbol
_atom_site_fract_x
_atom_site_fract_y
_atom_site_fract_z
V1     V     0.268   0.268   0.0
V2     V     0.732   0.732   0.0
Er3     Er     0.8453   0.4226   0.0
Er4     Er     0.5774   0.4226   0.0
Er5     Er     0.5774   0.1547   0.0
Er6     Er     0.4226   0.5774   0.0
Er7     Er     0.4226   0.8453   0.0
Er8     Er     0.1547   0.5774   0.0
V9     V     0.0   0.732   0.0
V10     V     0.268   0.0   0.0
V11     V     0.0   0.268   0.0
V12     V     0.732   0.0   0.0
loop_
_geom_bond_atom_site_label_1
_geom_bond_atom_site_label_2
_geom_bond_distance
_geom_bond_site_symmetry_2
_ccdc_geom_bond_type
V1     V10    10.0   .     S
V1     V11    10.0   .     S
V1     Er4    10.0   .     S
V1     Er6    10.0   .     S
V2     V12    10.0   1_565     S
V2     Er4    10.0   .     S
V2     Er6    10.0   .     S
V2     V9    10.0   1_655     S
Er3     Er4    10.0   .     S
Er3     Er5    10.0   .     S
Er3     V9    10.0   1_655     S
Er3     V11    10.0   1_655     S
Er3     Er8    10.0   1_655     S
Er4     Er5    10.0   .     S
Er4     Er6    10.0   .     S
Er5     V12    10.0   .     S
Er5     Er7    10.0   1_545     S
Er5     V10    10.0   .     S
Er6     Er8    10.0   .     S
Er6     Er7    10.0   .     S
Er7     Er8    10.0   .     S
Er7     V10    10.0   1_565     S
Er7     V12    10.0   1_565     S
Er7     Er5    10.0   1_565     S
Er8     V9    10.0   .     S
Er8     V11    10.0   .     S
Er8     Er3    10.0   1_455     S
V9     V10    10.0   1_565     S
V9     V2    10.0   1_455     S
V9     Er3    10.0   1_455     S
V10     V9    10.0   1_545     S
V10     Er7    10.0   1_545     S
V11     V12    10.0   1_455     S
V11     Er3    10.0   1_455     S
V12     V2    10.0   1_545     S
V12     V11    10.0   1_655     S
V12     Er7    10.0   1_545     S
