1B_2indole
_audit_creation_date              2019-09-07
_audit_creation_method            'assign_MBBB_charges.py'
_symmetry_space_group_name_H-M    'P1'
_symmetry_Int_Tables_number       1
_symmetry_cell_setting            triclinic
loop_
_symmetry_equiv_pos_as_xyz
  x,y,z
_cell_length_a                    20.0000
_cell_length_b                    20.0000
_cell_length_c                    20.0000
_cell_angle_alpha                 90.0000
_cell_angle_beta                  90.0000
_cell_angle_gamma                 90.0000
loop_
_atom_site_label
_atom_site_type_symbol
_atom_site_fract_x
_atom_site_fract_y
_atom_site_fract_z
_atom_site_U_iso_or_equiv
_atom_site_adp_type
_atom_site_occupancy
_atom_site_charge
C1      C         0.84254     -0.00187     -0.00365      0.00000   Uiso   1.00      0.20634
C2      C         0.87916     -0.06957     -0.00696      0.00000   Uiso   1.00     -0.39243
C3      C         0.95600     -0.06581     -0.00362      0.00000   Uiso   1.00      0.19615
C4      C         0.99379      0.00058      0.00199      0.00000   Uiso   1.00      0.22254
C5      C         0.95726      0.06835      0.00448      0.00000   Uiso   1.00     -0.39750
C6      C         0.88032      0.06450      0.00195      0.00000   Uiso   1.00      0.21050
N7      N         0.76830      0.01233     -0.00162      0.00000   Uiso   1.00     -0.33027
X8      C         0.75878      0.08728      0.00581      0.00000   Uiso   1.00     -0.10572
C9      C         0.82839      0.12066      0.00750      0.00000   Uiso   1.00     -0.29386
N10     N         1.06773     -0.01414      0.00737      0.00000   Uiso   1.00     -0.45974
X11     C         1.07691     -0.08957      0.00582      0.00000   Uiso   1.00     -0.05266
C12     C         1.00752     -0.12259     -0.00163      0.00000   Uiso   1.00     -0.22637
H13     H         0.85127     -0.11913     -0.01066      0.00000   Uiso   1.00      0.19177
H14     H         0.98516      0.11781      0.00935      0.00000   Uiso   1.00      0.17972
H16     H         0.83915      0.17633      0.01322      0.00000   Uiso   1.00      0.14244
H18     H         0.99656     -0.17846     -0.00363      0.00000   Uiso   1.00      0.14126
H25     H         0.72782     -0.02556     -0.00353      0.00000   Uiso   1.00      0.32281
H26     H         1.10812      0.02348      0.01311      0.00000   Uiso   1.00      0.35036
loop_
_geom_bond_atom_site_label_1
_geom_bond_atom_site_label_2
_geom_bond_distance
_geom_bond_site_symmetry_2
_ccdc_geom_bond_type
H18     C12        1.139 .   S  
N10     X11        1.520 .   A  
N10     H26        1.110 .   S  
N10     C4         1.512 .   A  
H13     C2         1.140 .   S  
H25     N7         1.110 .   S  
H14     C5         1.140 .   S  
H16     C9         1.140 .   S  
C6      C1         1.531 .   A  
C6      C9         1.534 .   A  
C6      C5         1.542 .   A  
C9      X8         1.544 .   A  
X8      N7         1.518 .   A  
C2      C3         1.540 .   A  
C2      C1         1.541 .   A  
C3      C12        1.534 .   A  
C3      C4         1.532 .   A  
C12     X11        1.544 .   A  
N7      C1         1.512 .   A  
C5      C4         1.541 .   A  
