2B_1DoU_4H
_audit_creation_date              2019-09-07
_audit_creation_method            'assign_MBBB_charges.py'
_symmetry_space_group_name_H-M    'P1'
_symmetry_Int_Tables_number       1
_symmetry_cell_setting            triclinic
loop_
_symmetry_equiv_pos_as_xyz
  x,y,z
_cell_length_a                    30.0000
_cell_length_b                    30.0000
_cell_length_c                    30.0000
_cell_angle_alpha                 90.0000
_cell_angle_beta                  90.0000
_cell_angle_gamma                 90.0000
loop_
_atom_site_label
_atom_site_type_symbol
_atom_site_fract_x
_atom_site_fract_y
_atom_site_fract_z
_atom_site_U_iso_or_equiv
_atom_site_adp_type
_atom_site_occupancy
_atom_site_charge
X1      C        -0.59266      0.32172     -0.28390      0.00000   Uiso   1.00     -0.02900
C2      C        -0.56871      0.27633     -0.28272      0.00000   Uiso   1.00     -0.05509
C3      C        -0.51754      0.27441     -0.27920      0.00000   Uiso   1.00     -0.20589
C4      C        -0.49034      0.31790     -0.27711      0.00000   Uiso   1.00      0.25145
C5      C        -0.51432      0.36328     -0.27789      0.00000   Uiso   1.00     -0.18143
C6      C        -0.56550      0.36519     -0.28120      0.00000   Uiso   1.00     -0.08116
C7      C        -0.43911      0.31607     -0.27488      0.00000   Uiso   1.00     -0.18397
C8      C        -0.41192      0.35960     -0.27410      0.00000   Uiso   1.00     -0.23197
C9      C        -0.36066      0.35770     -0.27563      0.00000   Uiso   1.00      0.27187
C10     C        -0.33329      0.40113     -0.27676      0.00000   Uiso   1.00     -0.19959
C11     C        -0.28215      0.39908     -0.28072      0.00000   Uiso   1.00     -0.09605
X12     C        -0.25842      0.35364     -0.28349      0.00000   Uiso   1.00     -0.10153
C13     C        -0.28569      0.31024     -0.28107      0.00000   Uiso   1.00     -0.03080
C14     C        -0.33681      0.31228     -0.27709      0.00000   Uiso   1.00     -0.18194
H15     H        -0.58887      0.24415     -0.28448      0.00000   Uiso   1.00      0.10893
H16     H        -0.49980      0.24083     -0.27835      0.00000   Uiso   1.00      0.10962
H17     H        -0.49415      0.39545     -0.27614      0.00000   Uiso   1.00      0.10632
H18     H        -0.58331      0.39880     -0.28180      0.00000   Uiso   1.00      0.11739
H19     H        -0.42126      0.28251     -0.27455      0.00000   Uiso   1.00      0.11832
H20     H        -0.42972      0.39313     -0.27330      0.00000   Uiso   1.00      0.13736
H21     H        -0.35091      0.43474     -0.27511      0.00000   Uiso   1.00      0.10250
H22     H        -0.26187      0.43122     -0.28195      0.00000   Uiso   1.00      0.12345
H23     H        -0.26804      0.27660     -0.28251      0.00000   Uiso   1.00      0.08956
H24     H        -0.35709      0.28013     -0.27562      0.00000   Uiso   1.00      0.11700
loop_
_geom_bond_atom_site_label_1
_geom_bond_atom_site_label_2
_geom_bond_distance
_geom_bond_site_symmetry_2
_ccdc_geom_bond_type
H24     C14        1.141 .   S  
H21     C10        1.140 .   S  
H20     C8         1.139 .   S  
H23     C13        1.141 .   S  
H22     C11        1.141 .   S  
C13     X12        1.539 .   A  
C13     C14        1.539 .   A  
X12     C11        1.540 .   A  
C11     C10        1.540 .   A  
C10     C9         1.540 .   A  
C14     C9         1.540 .   A  
C9      C8         1.540 .   S  
C8      C7         1.540 .   D  
C3      C2         1.540 .   A  
C3      H16        1.140 .   S  
C3      C4         1.540 .   A  
C2      X1         1.540 .   A  
C2      H15        1.140 .   S  
X1      C6         1.540 .   A  
C7      H19        1.141 .   S  
C7      C4         1.540 .   S  
C6      H18        1.141 .   S  
C6      C5         1.540 .   A  
C5      H17        1.140 .   S  
C5      C4         1.540 .   A  
