2B_fused
_audit_creation_date              2019-09-07
_audit_creation_method            'assign_MBBB_charges.py'
_symmetry_space_group_name_H-M    'P1'
_symmetry_Int_Tables_number       1
_symmetry_cell_setting            triclinic
loop_
_symmetry_equiv_pos_as_xyz
  x,y,z
_cell_length_a                    30.0000
_cell_length_b                    30.0000
_cell_length_c                    30.0000
_cell_angle_alpha                 90.0000
_cell_angle_beta                  90.0000
_cell_angle_gamma                 90.0000
loop_
_atom_site_label
_atom_site_type_symbol
_atom_site_fract_x
_atom_site_fract_y
_atom_site_fract_z
_atom_site_U_iso_or_equiv
_atom_site_adp_type
_atom_site_occupancy
_atom_site_charge
X1      C        -0.16152     -0.05465      0.00342      0.00000   Uiso   1.00     -0.04945
C2      C        -0.13536     -0.09854     -0.00156      0.00000   Uiso   1.00     -0.04879
C3      C        -0.08404     -0.09776     -0.00328      0.00000   Uiso   1.00     -0.23032
C4      C        -0.05892     -0.05315      0.00048      0.00000   Uiso   1.00      0.19183
C5      C        -0.08516     -0.00921      0.00448      0.00000   Uiso   1.00      0.16394
C6      C        -0.13644     -0.00995      0.00586      0.00000   Uiso   1.00     -0.18073
C7      C        -0.06013      0.03550      0.00735      0.00000   Uiso   1.00     -0.19898
C8      C        -0.00880      0.03617      0.00763      0.00000   Uiso   1.00     -0.12465
X9      C         0.01745     -0.00783      0.00461      0.00000   Uiso   1.00      0.04216
C10     C        -0.00759     -0.05246      0.00042      0.00000   Uiso   1.00     -0.24595
H12     H        -0.15396     -0.13160     -0.00377      0.00000   Uiso   1.00      0.09294
H13     H        -0.06465     -0.13022     -0.00705      0.00000   Uiso   1.00      0.12900
H14     H        -0.15584      0.02258      0.00899      0.00000   Uiso   1.00      0.12822
H15     H        -0.07959      0.06806      0.00954      0.00000   Uiso   1.00      0.12591
H16     H         0.00977      0.06921      0.01027      0.00000   Uiso   1.00      0.13126
H18     H         0.01186     -0.08498     -0.00238      0.00000   Uiso   1.00      0.15084
loop_
_geom_bond_atom_site_label_1
_geom_bond_atom_site_label_2
_geom_bond_distance
_geom_bond_site_symmetry_2
_ccdc_geom_bond_type
H18     C10        1.140 .   S  
H12     C2         1.140 .   S  
H13     C3         1.140 .   S  
H14     C6         1.140 .   S  
H15     C7         1.140 .   S  
H16     C8         1.140 .   S  
X9      C8         1.540 .   A  
X9      C10        1.540 .   A  
C8      C7         1.540 .   A  
C3      C2         1.540 .   A  
C3      C4         1.540 .   A  
C2      X1         1.540 .   A  
X1      C6         1.539 .   A  
C10     C4         1.540 .   A  
C7      C5         1.540 .   A  
C6      C5         1.539 .   A  
C5      C4         1.540 .   A  
