3B_4H
_audit_creation_date              2019-09-07
_audit_creation_method            'assign_MBBB_charges.py'
_symmetry_space_group_name_H-M    'P1'
_symmetry_Int_Tables_number       1
_symmetry_cell_setting            triclinic
loop_
_symmetry_equiv_pos_as_xyz
  x,y,z
_cell_length_a                    40.0000
_cell_length_b                    40.0000
_cell_length_c                    40.0000
_cell_angle_alpha                 90.0000
_cell_angle_beta                  90.0000
_cell_angle_gamma                 90.0000
loop_
_atom_site_label
_atom_site_type_symbol
_atom_site_fract_x
_atom_site_fract_y
_atom_site_fract_z
_atom_site_U_iso_or_equiv
_atom_site_adp_type
_atom_site_occupancy
_atom_site_charge
X1      C        -0.20050      0.00277      0.00398      0.00000   Uiso   1.00     -0.01427
C2      C        -0.18097     -0.03022      0.00070      0.00000   Uiso   1.00     -0.09149
C3      C        -0.14253     -0.02971     -0.00138      0.00000   Uiso   1.00     -0.12131
C4      C        -0.12364      0.00382     -0.00025      0.00000   Uiso   1.00      0.09314
C5      C        -0.14319      0.03688      0.00236      0.00000   Uiso   1.00     -0.10909
C6      C        -0.18164      0.03635      0.00459      0.00000   Uiso   1.00     -0.10166
C7      C        -0.08517      0.00417     -0.00132      0.00000   Uiso   1.00      0.01911
C8      C        -0.06574     -0.02901     -0.00299      0.00000   Uiso   1.00     -0.09198
C9      C        -0.02726     -0.02880     -0.00303      0.00000   Uiso   1.00     -0.09203
C10     C        -0.00824      0.00462     -0.00135      0.00000   Uiso   1.00      0.01908
C11     C        -0.02766      0.03784     -0.00026      0.00000   Uiso   1.00     -0.09218
C12     C        -0.06616      0.03762     -0.00026      0.00000   Uiso   1.00     -0.09215
C13     C         0.03021      0.00474     -0.00032      0.00000   Uiso   1.00      0.09302
C14     C         0.04948     -0.02854     -0.00161      0.00000   Uiso   1.00     -0.12108
C15     C         0.08792     -0.02861      0.00035      0.00000   Uiso   1.00     -0.09179
X16     C         0.10707      0.00461      0.00377      0.00000   Uiso   1.00     -0.01409
C17     C         0.08781      0.03795      0.00460      0.00000   Uiso   1.00     -0.10170
C18     C         0.04936      0.03802      0.00244      0.00000   Uiso   1.00     -0.10901
H20     H        -0.19496     -0.05505      0.00001      0.00000   Uiso   1.00      0.11586
H21     H        -0.12803     -0.05415     -0.00356      0.00000   Uiso   1.00      0.08791
H22     H        -0.12920      0.06173      0.00289      0.00000   Uiso   1.00      0.08724
H23     H        -0.19614      0.06080      0.00677      0.00000   Uiso   1.00      0.11474
H24     H        -0.07988     -0.05374     -0.00406      0.00000   Uiso   1.00      0.08388
H25     H        -0.01284     -0.05337     -0.00404      0.00000   Uiso   1.00      0.08390
H26     H        -0.01353      0.06258      0.00075      0.00000   Uiso   1.00      0.08460
H27     H        -0.08058      0.06219      0.00071      0.00000   Uiso   1.00      0.08455
H28     H         0.03528     -0.05313     -0.00392      0.00000   Uiso   1.00      0.08789
H29     H         0.10218     -0.05324     -0.00053      0.00000   Uiso   1.00      0.11590
H31     H         0.10199      0.06255      0.00687      0.00000   Uiso   1.00      0.11470
H32     H         0.03508      0.06265      0.00310      0.00000   Uiso   1.00      0.08723
loop_
_geom_bond_atom_site_label_1
_geom_bond_atom_site_label_2
_geom_bond_distance
_geom_bond_site_symmetry_2
_ccdc_geom_bond_type
H29     C15        1.139 .   S  
H28     C14        1.140 .   S  
H25     C9         1.140 .   S  
H24     C8         1.140 .   S  
H27     C12        1.140 .   S  
H26     C11        1.140 .   S  
H21     C3         1.140 .   S  
H20     C2         1.140 .   S  
H23     C6         1.141 .   S  
H22     C5         1.141 .   S  
C18     C13        1.540 .   A  
C18     H32        1.139 .   S  
C18     C17        1.541 .   A  
C13     C10        1.539 .   S  
C13     C14        1.539 .   A  
C12     C11        1.540 .   A  
C12     C7         1.539 .   A  
C11     C10        1.540 .   A  
C10     C9         1.540 .   A  
C17     H31        1.139 .   S  
C17     X16        1.541 .   A  
X16     C15        1.540 .   A  
C15     C14        1.540 .   A  
C8      C9         1.539 .   A  
C8      C7         1.540 .   A  
C3      C2         1.540 .   A  
C3      C4         1.540 .   A  
C2      X1         1.539 .   A  
X1      C6         1.540 .   A  
C7      C4         1.539 .   S  
C6      C5         1.541 .   A  
C5      C4         1.540 .   A  
